version 2
run A-0-20190730-14:57:11-8020
attr configname A
attr datetime 20190730-14:57:11
attr experiment A
attr inifile SimV2.ini
attr iterationvars ""
attr iterationvarsf ""
attr measurement ""
attr network NetworkTormV2
attr processid 8020
attr repetition 0
attr replication #0
attr resultdir results
attr runnumber 0
attr seedset 0
param **.mobility.traceFile "\"paths/A.movements\""
param **.numNodes 3
param **.wirelessIfc.wirelessRange 25m
param **.bluetoothIfc.wirelessRange 25m
param **.numNodes 2
param **.application.usedRNG 1
param **.application.dataGenerationInterval 1s
param **.application.dataSizeInBytes 10
param **.application.ttl 999999s
param **application.destinationAddr "\"Wf:00:00:00:00:03\""
param **application.destinationBTAddr "\"Bt:00:00:00:00:03\""
param **application.nodesThatGen true
param **application.nodesGenMsg "\"0\""
param **.routingLayer "\"EpidemicRoutingLayer\""
param **.routing.maximumCacheSize 500byte
param **.routing.maximumHopCount 25
param **.routing.useTTL false
param **.neighboring.antiEntropyInterval 1s
param **.neighboring.maximumRandomBackoffDuration 1s
param **neighboring.usedRNG 2
param **.neighboring.GWAddr "\"02:00:00:00:00:03\""
param **.neighboring.sendWifiFirst true
param **.storage.maximumCacheSize 500byte
param **.wirelessIfc.wirelessRange 15m
param **.wirelessIfc.neighbourScanInterval 100ms
param **.wirelessIfc.bandwidthBitRate 100000bps
param **.wirelessIfc.wirelessHeaderSize 32byte
param **.wirelessIfc.minSSI -90
param **.bluetoothIfc.wirelessRange 15m
param **.bluetoothIfc.neighbourScanInterval 100ms
param **.bluetoothIfc.bandwidthBitRate 100000bps
param **.bluetoothIfc.wirelessHeaderSize 16byte
param **.bluetoothIfc.minSSI -90
param **.mobilityType "\"BonnMotionMobility\""
param **.mobility.traceFile "\"paths/Moves2.movements\""
param **.mobility.nodeId -1

vector 0 NetworkTormV2 nonLikedDataBytesReceivableByAllNodesSum:vector ETV
attr source sum(nonLikedDataBytesReceivableByAllNodes)
vector 1 NetworkTormV2 deliveryRatio:vector ETV
attr source sum(totalDataBytesReceived)/sum(totalDataBytesReceivableByAllNodes)
vector 2 NetworkTormV2 neighbourhoodSize:vector ETV
attr source neighbourhoodSize
vector 3 NetworkTormV2 dataBytesReceivedSum:vector ETV
attr source sum(dataBytesReceived)
vector 4 NetworkTormV2 totalBytesReceivedSum:vector ETV
attr source sum(totalBytesReceived)
vector 5 NetworkTormV2 likedDataBytesReceivableByAllNodesSum:vector ETV
attr source sum(likedDataBytesReceivableByAllNodes)
0	10	0.1	30
0	192	1.1	60
0	450	2.1	90
0	768	3.1	120
0	1572	5.1	150
0	2568	7.1	180
0	3756	9.1	210
0	4316	10.1	240
0	4604	11.1	270
0	5330	12.1	300
0	6128	13.1	330
0	6986	14.1	360
1	10	0.1	-nan
1	192	1.1	-nan
1	450	2.1	-nan
1	768	3.1	-nan
1	1146	4.1	-nan
1	1572	5.1	-nan
1	2046	6.1	-nan
1	2568	7.1	-nan
1	3138	8.1	-nan
1	3756	9.1	-nan
1	4316	10.1	-nan
1	4604	11.1	-nan
1	5330	12.1	-nan
1	6128	13.1	-nan
1	6986	14.1	-nan
2	11	0.1	1
2	12	0.1	1
2	13	0.1	2
2	14	0.1	2
2	15	0.1	1
2	16	0.1	1
2	30	0.2	1
2	31	0.2	1
2	32	0.2	2
2	33	0.2	2
2	34	0.2	1
2	35	0.2	1
2	48	0.3	1
2	49	0.3	1
2	50	0.3	2
2	51	0.3	2
2	52	0.3	1
2	53	0.3	1
2	66	0.4	1
2	67	0.4	1
2	68	0.4	2
2	69	0.4	2
2	70	0.4	1
2	71	0.4	1
2	84	0.5	1
2	85	0.5	1
2	86	0.5	2
2	87	0.5	2
2	88	0.5	1
2	89	0.5	1
2	102	0.6	1
2	103	0.6	1
2	104	0.6	2
2	105	0.6	2
2	106	0.6	1
2	107	0.6	1
2	120	0.7	1
2	121	0.7	1
2	122	0.7	2
2	123	0.7	2
2	124	0.7	1
2	125	0.7	1
2	138	0.8	1
2	139	0.8	1
2	140	0.8	2
2	141	0.8	2
2	142	0.8	1
2	143	0.8	1
2	156	0.9	1
2	157	0.9	1
2	158	0.9	2
2	159	0.9	2
2	160	0.9	1
2	161	0.9	1
2	174	1	1
2	175	1	1
2	176	1	2
2	177	1	2
2	178	1	1
2	179	1	1
2	193	1.1	1
2	194	1.1	1
2	195	1.1	2
2	196	1.1	2
2	197	1.1	1
2	198	1.1	1
2	212	1.2	1
2	213	1.2	1
2	214	1.2	2
2	215	1.2	2
2	216	1.2	1
2	217	1.2	1
2	306	1.3	1
2	307	1.3	1
2	308	1.3	2
2	309	1.3	2
2	310	1.3	1
2	311	1.3	1
2	324	1.4	1
2	325	1.4	1
2	326	1.4	2
2	327	1.4	2
2	328	1.4	1
2	329	1.4	1
2	342	1.5	1
2	343	1.5	1
2	344	1.5	2
2	345	1.5	2
2	346	1.5	1
2	347	1.5	1
2	360	1.6	1
2	361	1.6	1
2	362	1.6	2
2	363	1.6	2
2	364	1.6	1
2	365	1.6	1
2	378	1.7	1
2	379	1.7	1
2	380	1.7	2
2	381	1.7	2
2	382	1.7	1
2	383	1.7	1
2	396	1.8	1
2	397	1.8	1
2	398	1.8	2
2	399	1.8	2
2	400	1.8	1
2	401	1.8	1
2	414	1.9	1
2	415	1.9	1
2	416	1.9	2
2	417	1.9	2
2	418	1.9	1
2	419	1.9	1
2	432	2	1
2	433	2	1
2	434	2	2
2	435	2	2
2	436	2	1
2	437	2	1
2	451	2.1	1
2	452	2.1	1
2	453	2.1	2
2	454	2.1	2
2	455	2.1	1
2	456	2.1	1
2	470	2.2	1
2	471	2.2	1
2	472	2.2	2
2	473	2.2	2
2	474	2.2	1
2	475	2.2	1
2	488	2.3	1
2	489	2.3	1
2	490	2.3	2
2	491	2.3	2
2	492	2.3	1
2	493	2.3	1
2	642	2.4	1
2	643	2.4	1
2	644	2.4	2
2	645	2.4	2
2	646	2.4	1
2	647	2.4	1
2	660	2.5	1
2	661	2.5	1
2	662	2.5	2
2	663	2.5	2
2	664	2.5	1
2	665	2.5	1
2	678	2.6	1
2	679	2.6	1
2	680	2.6	2
2	681	2.6	2
2	682	2.6	1
2	683	2.6	1
2	696	2.7	1
2	697	2.7	1
2	698	2.7	2
2	699	2.7	2
2	700	2.7	1
2	701	2.7	1
2	714	2.8	1
2	715	2.8	1
2	716	2.8	2
2	717	2.8	2
2	718	2.8	1
2	719	2.8	1
2	732	2.9	1
2	733	2.9	1
2	734	2.9	2
2	735	2.9	2
2	736	2.9	1
2	737	2.9	1
2	750	3	1
2	751	3	1
2	752	3	2
2	753	3	2
2	754	3	1
2	755	3	1
2	769	3.1	1
2	770	3.1	1
2	771	3.1	2
2	772	3.1	2
2	773	3.1	1
2	774	3.1	1
2	788	3.2	1
2	789	3.2	1
2	790	3.2	2
2	791	3.2	2
2	792	3.2	1
2	793	3.2	1
2	806	3.3	1
2	807	3.3	1
2	808	3.3	2
2	809	3.3	2
2	810	3.3	1
2	811	3.3	1
2	824	3.4	1
2	825	3.4	1
2	826	3.4	2
2	827	3.4	2
2	828	3.4	1
2	829	3.4	1
2	1038	3.5	1
2	1039	3.5	1
2	1040	3.5	2
2	1041	3.5	2
2	1042	3.5	1
2	1043	3.5	1
2	1056	3.6	1
2	1057	3.6	1
2	1058	3.6	2
2	1059	3.6	2
2	1060	3.6	1
2	1061	3.6	1
2	1074	3.7	1
2	1075	3.7	1
2	1076	3.7	2
2	1077	3.7	2
2	1078	3.7	1
2	1079	3.7	1
2	1092	3.8	1
2	1093	3.8	1
2	1094	3.8	2
2	1095	3.8	2
2	1096	3.8	1
2	1097	3.8	1
2	1110	3.9	1
2	1111	3.9	1
2	1112	3.9	2
2	1113	3.9	2
2	1114	3.9	1
2	1115	3.9	1
2	1128	4	1
2	1129	4	1
2	1130	4	2
2	1131	4	2
2	1132	4	1
2	1133	4	1
2	1147	4.1	1
2	1148	4.1	1
2	1149	4.1	2
2	1150	4.1	2
2	1151	4.1	1
2	1152	4.1	1
2	1166	4.2	1
2	1167	4.2	1
2	1168	4.2	2
2	1169	4.2	2
2	1170	4.2	1
2	1171	4.2	1
2	1184	4.3	1
2	1185	4.3	1
2	1186	4.3	2
2	1187	4.3	2
2	1188	4.3	1
2	1189	4.3	1
2	1202	4.4	1
2	1203	4.4	1
2	1204	4.4	2
2	1205	4.4	2
2	1206	4.4	1
2	1207	4.4	1
2	1220	4.5	1
2	1221	4.5	1
2	1222	4.5	2
2	1223	4.5	2
2	1224	4.5	1
2	1225	4.5	1
2	1482	4.6	1
2	1483	4.6	1
2	1484	4.6	2
2	1485	4.6	2
2	1486	4.6	1
2	1487	4.6	1
2	1500	4.7	1
2	1501	4.7	1
2	1502	4.7	2
2	1503	4.7	2
2	1504	4.7	1
2	1505	4.7	1
2	1518	4.8	1
2	1519	4.8	1
2	1520	4.8	2
2	1521	4.8	2
2	1522	4.8	1
2	1523	4.8	1
2	1536	4.9	1
2	1537	4.9	1
2	1538	4.9	2
2	1539	4.9	2
2	1540	4.9	1
2	1541	4.9	1
2	1554	5	1
2	1555	5	1
2	1556	5	2
2	1557	5	2
2	1558	5	1
2	1559	5	1
2	1573	5.1	1
2	1574	5.1	1
2	1575	5.1	2
2	1576	5.1	2
2	1577	5.1	1
2	1578	5.1	1
2	1592	5.2	1
2	1593	5.2	1
2	1594	5.2	2
2	1595	5.2	2
2	1596	5.2	1
2	1597	5.2	1
2	1610	5.3	1
2	1611	5.3	1
2	1612	5.3	2
2	1613	5.3	2
2	1614	5.3	1
2	1615	5.3	1
2	1628	5.4	1
2	1629	5.4	1
2	1630	5.4	2
2	1631	5.4	2
2	1632	5.4	1
2	1633	5.4	1
2	1646	5.5	1
2	1647	5.5	1
2	1648	5.5	2
2	1649	5.5	2
2	1650	5.5	1
2	1651	5.5	1
2	1664	5.6	1
2	1665	5.6	1
2	1666	5.6	2
2	1667	5.6	2
2	1668	5.6	1
2	1669	5.6	1
2	1974	5.7	1
2	1975	5.7	1
2	1976	5.7	2
2	1977	5.7	2
2	1978	5.7	1
2	1979	5.7	1
2	1992	5.8	1
2	1993	5.8	1
2	1994	5.8	2
2	1995	5.8	2
2	1996	5.8	1
2	1997	5.8	1
2	2010	5.9	1
2	2011	5.9	1
2	2012	5.9	2
2	2013	5.9	2
2	2014	5.9	1
2	2015	5.9	1
2	2028	6	1
2	2029	6	1
2	2030	6	2
2	2031	6	2
2	2032	6	1
2	2033	6	1
2	2047	6.1	1
2	2048	6.1	1
2	2049	6.1	2
2	2050	6.1	2
2	2051	6.1	1
2	2052	6.1	1
2	2066	6.2	1
2	2067	6.2	1
2	2068	6.2	2
2	2069	6.2	2
2	2070	6.2	1
2	2071	6.2	1
2	2084	6.3	1
2	2085	6.3	1
2	2086	6.3	2
2	2087	6.3	2
2	2088	6.3	1
2	2089	6.3	1
2	2102	6.4	1
2	2103	6.4	1
2	2104	6.4	2
2	2105	6.4	2
2	2106	6.4	1
2	2107	6.4	1
2	2120	6.5	1
2	2121	6.5	1
2	2122	6.5	2
2	2123	6.5	2
2	2124	6.5	1
2	2125	6.5	1
2	2138	6.6	1
2	2139	6.6	1
2	2140	6.6	2
2	2141	6.6	2
2	2142	6.6	1
2	2143	6.6	1
2	2156	6.7	1
2	2157	6.7	1
2	2158	6.7	2
2	2159	6.7	2
2	2160	6.7	1
2	2161	6.7	1
2	2490	6.8	1
2	2491	6.8	1
2	2492	6.8	2
2	2493	6.8	2
2	2494	6.8	1
2	2495	6.8	1
2	2532	6.9	1
2	2533	6.9	1
2	2534	6.9	2
2	2535	6.9	2
2	2536	6.9	1
2	2537	6.9	1
2	2550	7	1
2	2551	7	1
2	2552	7	2
2	2553	7	2
2	2554	7	1
2	2555	7	1
2	2569	7.1	1
2	2570	7.1	1
2	2571	7.1	2
2	2572	7.1	2
2	2573	7.1	1
2	2574	7.1	1
2	2588	7.2	1
2	2589	7.2	1
2	2590	7.2	2
2	2591	7.2	2
2	2592	7.2	1
2	2593	7.2	1
2	2606	7.3	1
2	2607	7.3	1
2	2608	7.3	2
2	2609	7.3	2
2	2610	7.3	1
2	2611	7.3	1
2	2624	7.4	1
2	2625	7.4	1
2	2626	7.4	2
2	2627	7.4	2
2	2628	7.4	1
2	2629	7.4	1
2	2642	7.5	1
2	2643	7.5	1
2	2644	7.5	2
2	2645	7.5	2
2	2646	7.5	1
2	2647	7.5	1
2	2660	7.6	1
2	2661	7.6	1
2	2662	7.6	2
2	2663	7.6	2
2	2664	7.6	1
2	2665	7.6	1
2	2678	7.7	1
2	2679	7.7	1
2	2680	7.7	2
2	2681	7.7	2
2	2682	7.7	1
2	2683	7.7	1
2	2696	7.8	1
2	2697	7.8	1
2	2698	7.8	2
2	2699	7.8	2
2	2700	7.8	1
2	2701	7.8	1
2	3054	7.9	1
2	3055	7.9	1
2	3056	7.9	2
2	3057	7.9	2
2	3058	7.9	1
2	3059	7.9	1
2	3120	8	1
2	3121	8	1
2	3122	8	2
2	3123	8	2
2	3124	8	1
2	3125	8	1
2	3139	8.1	1
2	3140	8.1	1
2	3141	8.1	2
2	3142	8.1	2
2	3143	8.1	1
2	3144	8.1	1
2	3158	8.2	1
2	3159	8.2	1
2	3160	8.2	2
2	3161	8.2	2
2	3162	8.2	1
2	3163	8.2	1
2	3176	8.3	1
2	3177	8.3	1
2	3178	8.3	2
2	3179	8.3	2
2	3180	8.3	1
2	3181	8.3	1
2	3194	8.4	1
2	3195	8.4	1
2	3196	8.4	2
2	3197	8.4	2
2	3198	8.4	1
2	3199	8.4	1
2	3212	8.5	1
2	3213	8.5	1
2	3214	8.5	2
2	3215	8.5	2
2	3216	8.5	1
2	3217	8.5	1
2	3230	8.6	1
2	3231	8.6	1
2	3232	8.6	2
2	3233	8.6	2
2	3234	8.6	1
2	3235	8.6	1
2	3248	8.7	1
2	3249	8.7	1
2	3250	8.7	2
2	3251	8.7	2
2	3252	8.7	1
2	3253	8.7	1
2	3266	8.8	1
2	3267	8.8	1
2	3268	8.8	2
2	3269	8.8	2
2	3270	8.8	1
2	3271	8.8	1
2	3284	8.9	1
2	3285	8.9	1
2	3286	8.9	2
2	3287	8.9	2
2	3288	8.9	1
2	3289	8.9	1
2	3660	9	1
2	3661	9	1
2	3662	9	2
2	3663	9	2
2	3664	9	1
2	3665	9	1
2	3757	9.1	1
2	3758	9.1	1
2	3759	9.1	2
2	3760	9.1	2
2	3761	9.1	1
2	3762	9.1	1
2	3776	9.2	1
2	3777	9.2	1
2	3778	9.2	2
2	3779	9.2	2
2	3780	9.2	1
2	3781	9.2	1
2	3794	9.3	1
2	3795	9.3	1
2	3796	9.3	2
2	3797	9.3	2
2	3798	9.3	1
2	3799	9.3	1
2	3812	9.4	1
2	3813	9.4	1
2	3814	9.4	2
2	3815	9.4	2
2	3816	9.4	1
2	3817	9.4	1
2	3830	9.5	1
2	3831	9.5	1
2	3832	9.5	2
2	3833	9.5	2
2	3834	9.5	1
2	3835	9.5	1
2	3848	9.6	1
2	3849	9.6	1
2	3850	9.6	2
2	3851	9.6	2
2	3852	9.6	1
2	3853	9.6	1
2	3866	9.7	1
2	3867	9.7	1
2	3868	9.7	2
2	3869	9.7	2
2	3870	9.7	1
2	3871	9.7	1
2	3884	9.8	1
2	3885	9.8	1
2	3886	9.8	2
2	3887	9.8	2
2	3888	9.8	1
2	3889	9.8	1
2	3902	9.9	1
2	3903	9.9	1
2	3904	9.9	2
2	3905	9.9	2
2	3906	9.9	1
2	3907	9.9	1
2	3920	10	1
2	3921	10	1
2	3922	10	2
2	3923	10	2
2	3924	10	1
2	3925	10	1
2	4317	10.1	1
2	4318	10.1	1
2	4319	10.1	2
2	4320	10.1	2
2	4321	10.1	1
2	4322	10.1	1
2	4442	10.2	1
2	4443	10.2	1
2	4444	10.2	2
2	4445	10.2	2
2	4446	10.2	1
2	4447	10.2	1
2	4460	10.3	1
2	4461	10.3	1
2	4462	10.3	2
2	4463	10.3	2
2	4464	10.3	1
2	4465	10.3	1
2	4478	10.4	1
2	4479	10.4	1
2	4480	10.4	2
2	4481	10.4	2
2	4482	10.4	1
2	4483	10.4	1
2	4496	10.5	1
2	4497	10.5	1
2	4498	10.5	2
2	4499	10.5	2
2	4500	10.5	1
2	4501	10.5	1
2	4514	10.6	1
2	4515	10.6	1
2	4516	10.6	2
2	4517	10.6	2
2	4518	10.6	1
2	4519	10.6	1
2	4532	10.7	1
2	4533	10.7	1
2	4534	10.7	2
2	4535	10.7	2
2	4536	10.7	1
2	4537	10.7	1
2	4550	10.8	1
2	4551	10.8	1
2	4552	10.8	2
2	4553	10.8	2
2	4554	10.8	1
2	4555	10.8	1
2	4568	10.9	1
2	4569	10.9	1
2	4570	10.9	2
2	4571	10.9	2
2	4572	10.9	1
2	4573	10.9	1
2	4586	11	1
2	4587	11	1
2	4588	11	2
2	4589	11	2
2	4590	11	1
2	4591	11	1
2	4605	11.1	1
2	4606	11.1	1
2	4607	11.1	2
2	4608	11.1	2
2	4609	11.1	1
2	4610	11.1	1
2	5022	11.2	1
2	5023	11.2	1
2	5024	11.2	2
2	5025	11.2	2
2	5026	11.2	1
2	5027	11.2	1
2	5186	11.3	1
2	5187	11.3	1
2	5188	11.3	2
2	5189	11.3	2
2	5190	11.3	1
2	5191	11.3	1
2	5204	11.4	1
2	5205	11.4	1
2	5206	11.4	2
2	5207	11.4	2
2	5208	11.4	1
2	5209	11.4	1
2	5222	11.5	1
2	5223	11.5	1
2	5224	11.5	2
2	5225	11.5	2
2	5226	11.5	1
2	5227	11.5	1
2	5240	11.6	1
2	5241	11.6	1
2	5242	11.6	2
2	5243	11.6	2
2	5244	11.6	1
2	5245	11.6	1
2	5258	11.7	1
2	5259	11.7	1
2	5260	11.7	2
2	5261	11.7	2
2	5262	11.7	1
2	5263	11.7	1
2	5276	11.8	1
2	5277	11.8	1
2	5278	11.8	2
2	5279	11.8	2
2	5280	11.8	1
2	5281	11.8	1
2	5294	11.9	1
2	5295	11.9	1
2	5296	11.9	2
2	5297	11.9	2
2	5298	11.9	1
2	5299	11.9	1
2	5312	12	1
2	5313	12	1
2	5314	12	2
2	5315	12	2
2	5316	12	1
2	5317	12	1
2	5331	12.1	1
2	5332	12.1	1
2	5333	12.1	2
2	5334	12.1	2
2	5335	12.1	1
2	5336	12.1	1
2	5350	12.2	1
2	5351	12.2	1
2	5352	12.2	2
2	5353	12.2	2
2	5354	12.2	1
2	5355	12.2	1
2	5774	12.3	1
2	5775	12.3	1
2	5776	12.3	2
2	5777	12.3	2
2	5778	12.3	1
2	5779	12.3	1
2	5986	12.4	1
2	5987	12.4	1
2	5988	12.4	2
2	5989	12.4	2
2	5990	12.4	1
2	5991	12.4	1
2	6020	12.5	1
2	6021	12.5	1
2	6022	12.5	2
2	6023	12.5	2
2	6024	12.5	1
2	6025	12.5	1
2	6038	12.6	1
2	6039	12.6	1
2	6040	12.6	2
2	6041	12.6	2
2	6042	12.6	1
2	6043	12.6	1
2	6056	12.7	1
2	6057	12.7	1
2	6058	12.7	2
2	6059	12.7	2
2	6060	12.7	1
2	6061	12.7	1
2	6074	12.8	1
2	6075	12.8	1
2	6076	12.8	2
2	6077	12.8	2
2	6078	12.8	1
2	6079	12.8	1
2	6092	12.9	1
2	6093	12.9	1
2	6094	12.9	2
2	6095	12.9	2
2	6096	12.9	1
2	6097	12.9	1
2	6110	13	1
2	6111	13	1
2	6112	13	2
2	6113	13	2
2	6114	13	1
2	6115	13	1
2	6129	13.1	1
2	6130	13.1	1
2	6131	13.1	2
2	6132	13.1	2
2	6133	13.1	1
2	6134	13.1	1
2	6148	13.2	1
2	6149	13.2	1
2	6150	13.2	2
2	6151	13.2	2
2	6152	13.2	1
2	6153	13.2	1
2	6166	13.3	1
2	6167	13.3	1
2	6168	13.3	2
2	6169	13.3	2
2	6170	13.3	1
2	6171	13.3	1
2	6602	13.4	1
2	6603	13.4	1
2	6604	13.4	2
2	6605	13.4	2
2	6606	13.4	1
2	6607	13.4	1
2	6834	13.5	1
2	6835	13.5	1
2	6836	13.5	2
2	6837	13.5	2
2	6838	13.5	1
2	6839	13.5	1
2	6896	13.6	1
2	6897	13.6	1
2	6898	13.6	2
2	6899	13.6	2
2	6900	13.6	1
2	6901	13.6	1
2	6914	13.7	1
2	6915	13.7	1
2	6916	13.7	2
2	6917	13.7	2
2	6918	13.7	1
2	6919	13.7	1
2	6932	13.8	1
2	6933	13.8	1
2	6934	13.8	2
2	6935	13.8	2
2	6936	13.8	1
2	6937	13.8	1
2	6950	13.9	1
2	6951	13.9	1
2	6952	13.9	2
2	6953	13.9	2
2	6954	13.9	1
2	6955	13.9	1
2	6968	14	1
2	6969	14	1
2	6970	14	2
2	6971	14	2
2	6972	14	1
2	6973	14	1
2	6987	14.1	1
2	6988	14.1	1
2	6989	14.1	2
2	6990	14.1	2
2	6991	14.1	1
2	6992	14.1	1
2	7006	14.2	1
2	7007	14.2	1
2	7008	14.2	2
2	7009	14.2	2
2	7010	14.2	1
2	7011	14.2	1
2	7024	14.3	1
2	7025	14.3	1
2	7026	14.3	2
2	7027	14.3	2
2	7028	14.3	1
2	7029	14.3	1
2	7042	14.4	1
2	7043	14.4	1
2	7044	14.4	2
2	7045	14.4	2
2	7046	14.4	1
2	7047	14.4	1
2	7486	14.5	1
2	7487	14.5	1
2	7488	14.5	2
2	7489	14.5	2
2	7490	14.5	1
2	7491	14.5	1
2	7734	14.6	1
2	7735	14.6	1
2	7736	14.6	2
2	7737	14.6	2
2	7738	14.6	1
2	7739	14.6	1
2	7820	14.7	1
2	7821	14.7	1
2	7822	14.7	2
2	7823	14.7	2
2	7824	14.7	1
2	7825	14.7	1
2	7838	14.8	1
2	7839	14.8	1
2	7840	14.8	2
2	7841	14.8	2
2	7842	14.8	1
2	7843	14.8	1
2	7856	14.9	1
2	7857	14.9	1
2	7858	14.9	2
2	7859	14.9	2
2	7860	14.9	1
2	7861	14.9	1
2	7874	15	1
2	7875	15	1
2	7876	15	2
2	7877	15	2
2	7878	15	1
2	7879	15	1
3	289	1.21904	36
3	299	1.22448	72
3	575	2.31904	108
3	581	2.32368	144
3	587	2.32448	180
3	593	2.32912	216
3	599	2.32992	252
3	609	2.33456	288
3	623	2.34	324
3	921	3.41904	360
3	930	3.42368	396
3	931	3.42368	432
3	939	3.42448	468
3	948	3.42912	504
3	949	3.42912	540
3	957	3.42992	576
3	963	3.43456	612
3	969	3.43536	648
3	979	3.44	684
3	997	3.44544	720
3	1007	3.45088	756
3	1325	4.51904	792
3	1334	4.52368	828
3	1335	4.52368	864
3	1343	4.52448	900
3	1352	4.52912	936
3	1353	4.52912	972
3	1361	4.52992	1008
3	1370	4.53456	1044
3	1371	4.53456	1080
3	1379	4.53536	1116
3	1385	4.54	1152
3	1391	4.5408	1188
3	1401	4.54544	1224
3	1419	4.55088	1260
3	1433	4.55632	1296
3	1443	4.56176	1332
3	1777	5.61904	1368
3	1786	5.62368	1404
3	1787	5.62368	1440
3	1795	5.62448	1476
3	1804	5.62912	1512
3	1805	5.62912	1548
3	1813	5.62992	1584
3	1822	5.63456	1620
3	1823	5.63456	1656
3	1831	5.63536	1692
3	1840	5.64	1728
3	1841	5.64	1764
3	1849	5.6408	1800
3	1855	5.64544	1836
3	1861	5.64624	1872
3	1871	5.65088	1908
3	1889	5.65632	1944
3	1907	5.66176	1980
3	1917	5.6672	2016
3	1927	5.67264	2052
3	2277	6.71904	2088
3	2286	6.72368	2124
3	2287	6.72368	2160
3	2295	6.72448	2196
3	2304	6.72912	2232
3	2305	6.72912	2268
3	2313	6.72992	2304
3	2322	6.73456	2340
3	2323	6.73456	2376
3	2331	6.73536	2412
3	2340	6.74	2448
3	2341	6.74	2484
3	2349	6.7408	2520
3	2358	6.74544	2556
3	2359	6.74544	2592
3	2367	6.74624	2628
3	2373	6.75088	2664
3	2379	6.75168	2700
3	2389	6.75632	2736
3	2407	6.76176	2772
3	2429	6.7672	2808
3	2439	6.77264	2844
3	2449	6.77808	2880
3	2459	6.78352	2916
3	2825	7.81904	2952
3	2834	7.82368	2988
3	2835	7.82368	3024
3	2843	7.82448	3060
3	2852	7.82912	3096
3	2853	7.82912	3132
3	2861	7.82992	3168
3	2870	7.83456	3204
3	2871	7.83456	3240
3	2879	7.83536	3276
3	2888	7.84	3312
3	2889	7.84	3348
3	2897	7.8408	3384
3	2906	7.84544	3420
3	2907	7.84544	3456
3	2915	7.84624	3492
3	2924	7.85088	3528
3	2925	7.85088	3564
3	2933	7.85168	3600
3	2939	7.85632	3636
3	2945	7.85712	3672
3	2955	7.86176	3708
3	2973	7.8672	3744
3	2995	7.87264	3780
3	3009	7.87808	3816
3	3019	7.88352	3852
3	3029	7.88896	3888
3	3039	7.8944	3924
3	3421	8.91904	3960
3	3430	8.92368	3996
3	3431	8.92368	4032
3	3439	8.92448	4068
3	3448	8.92912	4104
3	3449	8.92912	4140
3	3457	8.92992	4176
3	3466	8.93456	4212
3	3467	8.93456	4248
3	3475	8.93536	4284
3	3484	8.94	4320
3	3485	8.94	4356
3	3493	8.9408	4392
3	3502	8.94544	4428
3	3503	8.94544	4464
3	3511	8.94624	4500
3	3520	8.95088	4536
3	3521	8.95088	4572
3	3529	8.95168	4608
3	3538	8.95632	4644
3	3539	8.95632	4680
3	3547	8.95712	4716
3	3553	8.96176	4752
3	3559	8.96256	4788
3	3569	8.9672	4824
3	3587	8.97264	4860
3	3609	8.97808	4896
3	3627	8.98352	4932
3	3637	8.98896	4968
3	3647	8.9944	5004
3	3657	8.99984	5040
3	3685	9.00528	5076
3	4065	10.01904	5112
3	4074	10.02368	5148
3	4075	10.02368	5184
3	4083	10.02448	5220
3	4092	10.02912	5256
3	4093	10.02912	5292
3	4101	10.02992	5328
3	4110	10.03456	5364
3	4111	10.03456	5400
3	4119	10.03536	5436
3	4128	10.04	5472
3	4129	10.04	5508
3	4137	10.0408	5544
3	4146	10.04544	5580
3	4147	10.04544	5616
3	4155	10.04624	5652
3	4164	10.05088	5688
3	4165	10.05088	5724
3	4173	10.05168	5760
3	4182	10.05632	5796
3	4183	10.05632	5832
3	4191	10.05712	5868
3	4200	10.06176	5904
3	4201	10.06176	5940
3	4209	10.06256	5976
3	4215	10.0672	6012
3	4221	10.068	6048
3	4231	10.07264	6084
3	4249	10.07808	6120
3	4271	10.08352	6156
3	4289	10.08896	6192
3	4303	10.0944	6228
3	4313	10.09984	6264
3	4343	10.10528	6300
3	4353	10.11072	6336
3	4363	10.11616	6372
3	4761	11.11904	6408
3	4770	11.12368	6444
3	4771	11.12368	6480
3	4779	11.12448	6516
3	4788	11.12912	6552
3	4789	11.12912	6588
3	4797	11.12992	6624
3	4806	11.13456	6660
3	4807	11.13456	6696
3	4815	11.13536	6732
3	4824	11.14	6768
3	4825	11.14	6804
3	4833	11.1408	6840
3	4842	11.14544	6876
3	4843	11.14544	6912
3	4851	11.14624	6948
3	4860	11.15088	6984
3	4861	11.15088	7020
3	4869	11.15168	7056
3	4878	11.15632	7092
3	4879	11.15632	7128
3	4887	11.15712	7164
3	4896	11.16176	7200
3	4897	11.16176	7236
3	4905	11.16256	7272
3	4914	11.1672	7308
3	4915	11.1672	7344
3	4923	11.168	7380
3	4929	11.17264	7416
3	4935	11.17344	7452
3	4941	11.17808	7488
3	4947	11.17888	7524
3	4961	11.18352	7560
3	4979	11.18896	7596
3	5001	11.1944	7632
3	5019	11.19984	7668
3	5055	11.20528	7704
3	5065	11.21072	7740
3	5075	11.21616	7776
3	5085	11.2216	7812
3	5095	11.22704	7848
3	5517	12.21904	7884
3	5526	12.22368	7920
3	5527	12.22368	7956
3	5535	12.22448	7992
3	5544	12.22912	8028
3	5545	12.22912	8064
3	5553	12.22992	8100
3	5562	12.23456	8136
3	5563	12.23456	8172
3	5571	12.23536	8208
3	5580	12.24	8244
3	5581	12.24	8280
3	5589	12.2408	8316
3	5598	12.24544	8352
3	5599	12.24544	8388
3	5607	12.24624	8424
3	5616	12.25088	8460
3	5617	12.25088	8496
3	5625	12.25168	8532
3	5634	12.25632	8568
3	5635	12.25632	8604
3	5643	12.25712	8640
3	5652	12.26176	8676
3	5653	12.26176	8712
3	5661	12.26256	8748
3	5670	12.2672	8784
3	5671	12.2672	8820
3	5679	12.268	8856
3	5688	12.27264	8892
3	5689	12.27264	8928
3	5697	12.27344	8964
3	5703	12.27808	9000
3	5709	12.27888	9036
3	5715	12.28352	9072
3	5721	12.28432	9108
3	5731	12.28896	9144
3	5749	12.2944	9180
3	5771	12.29984	9216
3	5807	12.30528	9252
3	5825	12.31072	9288
3	5843	12.31616	9324
3	5853	12.3216	9360
3	5863	12.32704	9396
3	5873	12.33248	9432
3	5883	12.33792	9468
3	5893	12.34336	9504
3	5903	12.3488	9540
3	6343	13.31904	9576
3	6352	13.32368	9612
3	6353	13.32368	9648
3	6361	13.32448	9684
3	6370	13.32912	9720
3	6371	13.32912	9756
3	6379	13.32992	9792
3	6388	13.33456	9828
3	6389	13.33456	9864
3	6397	13.33536	9900
3	6406	13.34	9936
3	6407	13.34	9972
3	6415	13.3408	10008
3	6424	13.34544	10044
3	6425	13.34544	10080
3	6433	13.34624	10116
3	6442	13.35088	10152
3	6443	13.35088	10188
3	6451	13.35168	10224
3	6460	13.35632	10260
3	6461	13.35632	10296
3	6469	13.35712	10332
3	6478	13.36176	10368
3	6479	13.36176	10404
3	6487	13.36256	10440
3	6496	13.3672	10476
3	6497	13.3672	10512
3	6505	13.368	10548
3	6514	13.37264	10584
3	6515	13.37264	10620
3	6523	13.37344	10656
3	6532	13.37808	10692
3	6533	13.37808	10728
3	6541	13.37888	10764
3	6550	13.38352	10800
3	6551	13.38352	10836
3	6559	13.38432	10872
3	6565	13.38896	10908
3	6571	13.38976	10944
3	6581	13.3944	10980
3	6599	13.39984	11016
3	6639	13.40528	11052
3	6657	13.41072	11088
3	6675	13.41616	11124
3	6693	13.4216	11160
3	6707	13.42704	11196
3	6717	13.43248	11232
3	6727	13.43792	11268
3	6737	13.44336	11304
3	6747	13.4488	11340
3	6757	13.45424	11376
3	6767	13.45968	11412
3	7227	14.41904	11448
3	7236	14.42368	11484
3	7237	14.42368	11520
3	7245	14.42448	11556
3	7254	14.42912	11592
3	7255	14.42912	11628
3	7263	14.42992	11664
3	7272	14.43456	11700
3	7273	14.43456	11736
3	7281	14.43536	11772
3	7290	14.44	11808
3	7291	14.44	11844
3	7299	14.4408	11880
3	7308	14.44544	11916
3	7309	14.44544	11952
3	7317	14.44624	11988
3	7326	14.45088	12024
3	7327	14.45088	12060
3	7335	14.45168	12096
3	7344	14.45632	12132
3	7345	14.45632	12168
3	7353	14.45712	12204
3	7362	14.46176	12240
3	7363	14.46176	12276
3	7371	14.46256	12312
3	7380	14.4672	12348
3	7381	14.4672	12384
3	7389	14.468	12420
3	7398	14.47264	12456
3	7399	14.47264	12492
3	7407	14.47344	12528
3	7416	14.47808	12564
3	7417	14.47808	12600
3	7425	14.47888	12636
3	7434	14.48352	12672
3	7435	14.48352	12708
3	7443	14.48432	12744
3	7452	14.48896	12780
3	7453	14.48896	12816
3	7461	14.48976	12852
3	7467	14.4944	12888
3	7473	14.4952	12924
3	7483	14.49984	12960
3	7519	14.50528	12996
3	7541	14.51072	13032
3	7559	14.51616	13068
3	7577	14.5216	13104
3	7595	14.52704	13140
3	7613	14.53248	13176
3	7623	14.53792	13212
3	7633	14.54336	13248
3	7643	14.5488	13284
3	7653	14.55424	13320
3	7663	14.55968	13356
3	7673	14.56512	13392
3	7683	14.57056	13428
4	289	1.21904	36
4	299	1.22448	72
4	575	2.31904	108
4	581	2.32368	144
4	587	2.32448	180
4	593	2.32912	216
4	599	2.32992	252
4	609	2.33456	288
4	623	2.34	324
4	921	3.41904	360
4	930	3.42368	396
4	931	3.42368	432
4	939	3.42448	468
4	948	3.42912	504
4	949	3.42912	540
4	957	3.42992	576
4	963	3.43456	612
4	969	3.43536	648
4	979	3.44	684
4	997	3.44544	720
4	1007	3.45088	756
4	1325	4.51904	792
4	1334	4.52368	828
4	1335	4.52368	864
4	1343	4.52448	900
4	1352	4.52912	936
4	1353	4.52912	972
4	1361	4.52992	1008
4	1370	4.53456	1044
4	1371	4.53456	1080
4	1379	4.53536	1116
4	1385	4.54	1152
4	1391	4.5408	1188
4	1401	4.54544	1224
4	1419	4.55088	1260
4	1433	4.55632	1296
4	1443	4.56176	1332
4	1777	5.61904	1368
4	1786	5.62368	1404
4	1787	5.62368	1440
4	1795	5.62448	1476
4	1804	5.62912	1512
4	1805	5.62912	1548
4	1813	5.62992	1584
4	1822	5.63456	1620
4	1823	5.63456	1656
4	1831	5.63536	1692
4	1840	5.64	1728
4	1841	5.64	1764
4	1849	5.6408	1800
4	1855	5.64544	1836
4	1861	5.64624	1872
4	1871	5.65088	1908
4	1889	5.65632	1944
4	1907	5.66176	1980
4	1917	5.6672	2016
4	1927	5.67264	2052
4	2277	6.71904	2088
4	2286	6.72368	2124
4	2287	6.72368	2160
4	2295	6.72448	2196
4	2304	6.72912	2232
4	2305	6.72912	2268
4	2313	6.72992	2304
4	2322	6.73456	2340
4	2323	6.73456	2376
4	2331	6.73536	2412
4	2340	6.74	2448
4	2341	6.74	2484
4	2349	6.7408	2520
4	2358	6.74544	2556
4	2359	6.74544	2592
4	2367	6.74624	2628
4	2373	6.75088	2664
4	2379	6.75168	2700
4	2389	6.75632	2736
4	2407	6.76176	2772
4	2429	6.7672	2808
4	2439	6.77264	2844
4	2449	6.77808	2880
4	2459	6.78352	2916
4	2825	7.81904	2952
4	2834	7.82368	2988
4	2835	7.82368	3024
4	2843	7.82448	3060
4	2852	7.82912	3096
4	2853	7.82912	3132
4	2861	7.82992	3168
4	2870	7.83456	3204
4	2871	7.83456	3240
4	2879	7.83536	3276
4	2888	7.84	3312
4	2889	7.84	3348
4	2897	7.8408	3384
4	2906	7.84544	3420
4	2907	7.84544	3456
4	2915	7.84624	3492
4	2924	7.85088	3528
4	2925	7.85088	3564
4	2933	7.85168	3600
4	2939	7.85632	3636
4	2945	7.85712	3672
4	2955	7.86176	3708
4	2973	7.8672	3744
4	2995	7.87264	3780
4	3009	7.87808	3816
4	3019	7.88352	3852
4	3029	7.88896	3888
4	3039	7.8944	3924
4	3421	8.91904	3960
4	3430	8.92368	3996
4	3431	8.92368	4032
4	3439	8.92448	4068
4	3448	8.92912	4104
4	3449	8.92912	4140
4	3457	8.92992	4176
4	3466	8.93456	4212
4	3467	8.93456	4248
4	3475	8.93536	4284
4	3484	8.94	4320
4	3485	8.94	4356
4	3493	8.9408	4392
4	3502	8.94544	4428
4	3503	8.94544	4464
4	3511	8.94624	4500
4	3520	8.95088	4536
4	3521	8.95088	4572
4	3529	8.95168	4608
4	3538	8.95632	4644
4	3539	8.95632	4680
4	3547	8.95712	4716
4	3553	8.96176	4752
4	3559	8.96256	4788
4	3569	8.9672	4824
4	3587	8.97264	4860
4	3609	8.97808	4896
4	3627	8.98352	4932
4	3637	8.98896	4968
4	3647	8.9944	5004
4	3657	8.99984	5040
4	3685	9.00528	5076
4	4065	10.01904	5112
4	4074	10.02368	5148
4	4075	10.02368	5184
4	4083	10.02448	5220
4	4092	10.02912	5256
4	4093	10.02912	5292
4	4101	10.02992	5328
4	4110	10.03456	5364
4	4111	10.03456	5400
4	4119	10.03536	5436
4	4128	10.04	5472
4	4129	10.04	5508
4	4137	10.0408	5544
4	4146	10.04544	5580
4	4147	10.04544	5616
4	4155	10.04624	5652
4	4164	10.05088	5688
4	4165	10.05088	5724
4	4173	10.05168	5760
4	4182	10.05632	5796
4	4183	10.05632	5832
4	4191	10.05712	5868
4	4200	10.06176	5904
4	4201	10.06176	5940
4	4209	10.06256	5976
4	4215	10.0672	6012
4	4221	10.068	6048
4	4231	10.07264	6084
4	4249	10.07808	6120
4	4271	10.08352	6156
4	4289	10.08896	6192
4	4303	10.0944	6228
4	4313	10.09984	6264
4	4343	10.10528	6300
4	4353	10.11072	6336
4	4363	10.11616	6372
4	4761	11.11904	6408
4	4770	11.12368	6444
4	4771	11.12368	6480
4	4779	11.12448	6516
4	4788	11.12912	6552
4	4789	11.12912	6588
4	4797	11.12992	6624
4	4806	11.13456	6660
4	4807	11.13456	6696
4	4815	11.13536	6732
4	4824	11.14	6768
4	4825	11.14	6804
4	4833	11.1408	6840
4	4842	11.14544	6876
4	4843	11.14544	6912
4	4851	11.14624	6948
4	4860	11.15088	6984
4	4861	11.15088	7020
4	4869	11.15168	7056
4	4878	11.15632	7092
4	4879	11.15632	7128
4	4887	11.15712	7164
4	4896	11.16176	7200
4	4897	11.16176	7236
4	4905	11.16256	7272
4	4914	11.1672	7308
4	4915	11.1672	7344
4	4923	11.168	7380
4	4929	11.17264	7416
4	4935	11.17344	7452
4	4941	11.17808	7488
4	4947	11.17888	7524
4	4961	11.18352	7560
4	4979	11.18896	7596
4	5001	11.1944	7632
4	5019	11.19984	7668
4	5055	11.20528	7704
4	5065	11.21072	7740
4	5075	11.21616	7776
4	5085	11.2216	7812
4	5095	11.22704	7848
4	5517	12.21904	7884
4	5526	12.22368	7920
4	5527	12.22368	7956
4	5535	12.22448	7992
4	5544	12.22912	8028
4	5545	12.22912	8064
4	5553	12.22992	8100
4	5562	12.23456	8136
4	5563	12.23456	8172
4	5571	12.23536	8208
4	5580	12.24	8244
4	5581	12.24	8280
4	5589	12.2408	8316
4	5598	12.24544	8352
4	5599	12.24544	8388
4	5607	12.24624	8424
4	5616	12.25088	8460
4	5617	12.25088	8496
4	5625	12.25168	8532
4	5634	12.25632	8568
4	5635	12.25632	8604
4	5643	12.25712	8640
4	5652	12.26176	8676
4	5653	12.26176	8712
4	5661	12.26256	8748
4	5670	12.2672	8784
4	5671	12.2672	8820
4	5679	12.268	8856
4	5688	12.27264	8892
4	5689	12.27264	8928
4	5697	12.27344	8964
4	5703	12.27808	9000
4	5709	12.27888	9036
4	5715	12.28352	9072
4	5721	12.28432	9108
4	5731	12.28896	9144
4	5749	12.2944	9180
4	5771	12.29984	9216
4	5807	12.30528	9252
4	5825	12.31072	9288
4	5843	12.31616	9324
4	5853	12.3216	9360
4	5863	12.32704	9396
4	5873	12.33248	9432
4	5883	12.33792	9468
4	5893	12.34336	9504
4	5903	12.3488	9540
4	6343	13.31904	9576
4	6352	13.32368	9612
4	6353	13.32368	9648
4	6361	13.32448	9684
4	6370	13.32912	9720
4	6371	13.32912	9756
4	6379	13.32992	9792
4	6388	13.33456	9828
4	6389	13.33456	9864
4	6397	13.33536	9900
4	6406	13.34	9936
4	6407	13.34	9972
4	6415	13.3408	10008
4	6424	13.34544	10044
4	6425	13.34544	10080
4	6433	13.34624	10116
4	6442	13.35088	10152
4	6443	13.35088	10188
4	6451	13.35168	10224
4	6460	13.35632	10260
4	6461	13.35632	10296
4	6469	13.35712	10332
4	6478	13.36176	10368
4	6479	13.36176	10404
4	6487	13.36256	10440
4	6496	13.3672	10476
4	6497	13.3672	10512
4	6505	13.368	10548
4	6514	13.37264	10584
4	6515	13.37264	10620
4	6523	13.37344	10656
4	6532	13.37808	10692
4	6533	13.37808	10728
4	6541	13.37888	10764
4	6550	13.38352	10800
4	6551	13.38352	10836
4	6559	13.38432	10872
4	6565	13.38896	10908
4	6571	13.38976	10944
4	6581	13.3944	10980
4	6599	13.39984	11016
4	6639	13.40528	11052
4	6657	13.41072	11088
4	6675	13.41616	11124
4	6693	13.4216	11160
4	6707	13.42704	11196
4	6717	13.43248	11232
4	6727	13.43792	11268
4	6737	13.44336	11304
4	6747	13.4488	11340
4	6757	13.45424	11376
4	6767	13.45968	11412
4	7227	14.41904	11448
4	7236	14.42368	11484
4	7237	14.42368	11520
4	7245	14.42448	11556
4	7254	14.42912	11592
4	7255	14.42912	11628
4	7263	14.42992	11664
4	7272	14.43456	11700
4	7273	14.43456	11736
4	7281	14.43536	11772
4	7290	14.44	11808
4	7291	14.44	11844
4	7299	14.4408	11880
4	7308	14.44544	11916
4	7309	14.44544	11952
4	7317	14.44624	11988
4	7326	14.45088	12024
4	7327	14.45088	12060
4	7335	14.45168	12096
4	7344	14.45632	12132
4	7345	14.45632	12168
4	7353	14.45712	12204
4	7362	14.46176	12240
4	7363	14.46176	12276
4	7371	14.46256	12312
4	7380	14.4672	12348
4	7381	14.4672	12384
4	7389	14.468	12420
4	7398	14.47264	12456
4	7399	14.47264	12492
4	7407	14.47344	12528
4	7416	14.47808	12564
4	7417	14.47808	12600
4	7425	14.47888	12636
4	7434	14.48352	12672
4	7435	14.48352	12708
4	7443	14.48432	12744
4	7452	14.48896	12780
4	7453	14.48896	12816
4	7461	14.48976	12852
4	7467	14.4944	12888
4	7473	14.4952	12924
4	7483	14.49984	12960
4	7519	14.50528	12996
4	7541	14.51072	13032
4	7559	14.51616	13068
4	7577	14.5216	13104
4	7595	14.52704	13140
4	7613	14.53248	13176
4	7623	14.53792	13212
4	7633	14.54336	13248
4	7643	14.5488	13284
4	7653	14.55424	13320
4	7663	14.55968	13356
4	7673	14.56512	13392
4	7683	14.57056	13428
5	1146	4.1	30
5	2046	6.1	60
5	3138	8.1	90

