version 2
run A-0-20191106-00:32:13-17715
attr configname A
attr datetime 20191106-00:32:13
attr experiment A
attr inifile GwSimV1.ini
attr iterationvars ""
attr iterationvarsf ""
attr measurement ""
attr network NetworkTormV2
attr processid 17715
attr repetition 0
attr replication #0
attr resultdir results
attr runnumber 0
attr seedset 0
param **.mobility.traceFile "\"AllPaths/sPaths/A.movements\""
param **.numNodes 4
param **.application.dataGenerationInterval 1s
param **.application.dataSizeInBytes 10
param **.application.ttl 999999s
param **application.nodesThatGen false
param **application.nodesGenMsg "\"\""
param **application.startMultipleMsg false
param **application.numMultipleMsg 100
param **application.hopsListSize 50
param **.application.endGeneratingMsg 149s
param **.routingLayer "\"RoutingLqeGw\""
param **.routing.maximumCacheSize 5000byte
param **.routing.maximumHopCount 25
param **.routing.useTTL false
param **.routing.waitBFsend 0.1
param **.routing.max_age 999999s
param **.routing.gateway_list "\"\""
param **.routing.actual_gateway "\"\""
param **.routing.gwCheckPeriod 5s
param **.neighboring.resetGPeriod 999s
param **.wirelessIfc.wirelessRange 40m
param **.numNodes 2
param **.application.usedRNG 1
param **.application.dataGenerationInterval 1s
param **.application.dataSizeInBytes 10
param **.application.ttl 999999s
param **application.destinationAddr "\"Wf:00:00:00:00:02\""
param **application.destinationBTAddr "\"Bt:00:00:00:00:02\""
param **application.nodesThatGen true
param **application.nodesGenMsg "\"0\""
param **application.startMultipleMsg true
param **application.numMultipleMsg 100
param **application.hopsListSize 50
param **.application.endGeneratingMsg 999999s
param **.routingLayer "\"RoutingLqeGw\""
param **.routing.maximumCacheSize 5000byte
param **.routing.maximumHopCount 25
param **.routing.useTTL false
param **.routing.waitBFsend 0.1
param **.routing.max_age 999999s
param **.routing.gateway_list "\"\""
param **.routing.actual_gateway "\"\""
param **.routing.gwCheckPeriod 5s
param **.neighboring.antiEntropyInterval 500ms
param **.neighboring.maximumRandomBackoffDuration 1s
param **.neighboring.delayPerDataMsg 0.1
param **neighboring.usedRNG 2
param **.neighboring.GWAddr "\"Wf:00:00:00:00:02\""
param **.neighboring.sendWifiFirst true
param **.neighboring.maxLengthGraph 20
param **.neighboring.max_age 999999s
param **.neighboring.max_absent_time 1s
param **.wirelessIfc.wirelessRange 40m
param **.wirelessIfc.neighbourScanInterval 50ms
param **.wirelessIfc.bandwidthBitRate 100000bps
param **.wirelessIfc.wirelessHeaderSize 32byte
param **.wirelessIfc.minSSI -90
param **.wirelessIfc.limitQueueTime 400ms
param **.wirelessIfc.my_limit_rate 0bps
param **.bluetoothIfc.wirelessRange 40m
param **.bluetoothIfc.neighbourScanInterval 100ms
param **.bluetoothIfc.bandwidthBitRate 100000bps
param **.bluetoothIfc.wirelessHeaderSize 16byte
param **.bluetoothIfc.minSSI -90
param **.mobilityType "\"BonnMotionMobility\""
param **.mobility.traceFile "\"paths/Moves2.movements\""
param **.mobility.is3D false
param **.mobility.nodeId -1

vector 0 NetworkTormV2 neighbourhoodSize:vector ETV
attr source neighbourhoodSize
vector 1 NetworkTormV2 deliveryRatio:vector ETV
attr source sum(totalDataBytesReceived)/sum(totalDataBytesReceivableByAllNodes)
vector 2 NetworkTormV2 dataBytesReceivedSum:vector ETV
attr source sum(dataBytesReceived)
vector 3 NetworkTormV2 totalBytesReceivedSum:vector ETV
attr source sum(totalBytesReceived)
0	13	0.05	3
0	14	0.05	3
0	15	0.05	3
0	16	0.05	3
0	50	0.1	3
0	52	0.1	3
0	54	0.1	3
0	56	0.1	3
0	57	0.1	3
0	58	0.1	3
0	59	0.1	3
0	60	0.1	3
0	105	0.15	3
0	106	0.15	3
0	107	0.15	3
0	108	0.15	3
0	141	0.2	3
0	142	0.2	3
0	143	0.2	3
0	144	0.2	3
0	145	0.2	3
0	146	0.2	3
0	147	0.2	3
0	148	0.2	3
0	189	0.25	3
0	190	0.25	3
0	191	0.25	3
0	192	0.25	3
0	225	0.3	3
0	226	0.3	3
0	227	0.3	3
0	228	0.3	3
0	229	0.3	3
0	230	0.3	3
0	231	0.3	3
0	232	0.3	3
0	273	0.35	3
0	274	0.35	3
0	275	0.35	3
0	276	0.35	3
0	309	0.4	3
0	310	0.4	3
0	311	0.4	3
0	312	0.4	3
0	313	0.4	3
0	314	0.4	3
0	315	0.4	3
0	316	0.4	3
0	357	0.45	3
0	358	0.45	3
0	359	0.45	3
0	360	0.45	3
0	393	0.5	3
0	394	0.5	3
0	395	0.5	3
0	396	0.5	3
0	397	0.5	3
0	398	0.5	3
0	399	0.5	3
0	400	0.5	3
0	441	0.55	3
0	442	0.55	3
0	443	0.55	3
0	444	0.55	3
0	477	0.6	3
0	478	0.6	3
0	479	0.6	3
0	480	0.6	3
0	481	0.6	3
0	482	0.6	3
0	483	0.6	3
0	484	0.6	3
0	525	0.65	3
0	526	0.65	3
0	527	0.65	3
0	528	0.65	3
0	561	0.7	3
0	562	0.7	3
0	563	0.7	3
0	564	0.7	3
0	565	0.7	3
0	566	0.7	3
0	567	0.7	3
0	568	0.7	3
0	609	0.75	3
0	610	0.75	3
0	611	0.75	3
0	612	0.75	3
0	645	0.8	3
0	646	0.8	3
0	647	0.8	3
0	648	0.8	3
0	649	0.8	3
0	650	0.8	3
0	651	0.8	3
0	652	0.8	3
0	693	0.85	3
0	694	0.85	3
0	695	0.85	3
0	696	0.85	3
0	729	0.9	3
0	730	0.9	3
0	731	0.9	3
0	732	0.9	3
0	733	0.9	3
0	734	0.9	3
0	735	0.9	3
0	736	0.9	3
0	777	0.95	3
0	778	0.95	3
0	779	0.95	3
0	780	0.95	3
0	813	1	3
0	814	1	3
0	815	1	3
0	816	1	3
0	817	1	3
0	818	1	3
0	819	1	3
0	820	1	3
0	861	1.05	3
0	862	1.05	3
0	863	1.05	3
0	864	1.05	3
0	901	1.1	3
0	902	1.1	3
0	903	1.1	3
0	904	1.1	3
0	905	1.1	3
0	906	1.1	3
0	907	1.1	3
0	908	1.1	3
0	1157	1.15	3
0	1158	1.15	3
0	1159	1.15	3
0	1160	1.15	3
0	1265	1.2	3
0	1266	1.2	3
0	1267	1.2	3
0	1268	1.2	3
0	1269	1.2	3
0	1270	1.2	3
0	1271	1.2	3
0	1272	1.2	3
0	1313	1.25	3
0	1314	1.25	3
0	1315	1.25	3
0	1316	1.25	3
0	1349	1.3	3
0	1350	1.3	3
0	1351	1.3	3
0	1352	1.3	3
0	1353	1.3	3
0	1354	1.3	3
0	1355	1.3	3
0	1356	1.3	3
0	1397	1.35	3
0	1398	1.35	3
0	1399	1.35	3
0	1400	1.35	3
0	1433	1.4	3
0	1434	1.4	3
0	1435	1.4	3
0	1436	1.4	3
0	1437	1.4	3
0	1438	1.4	3
0	1439	1.4	3
0	1440	1.4	3
0	1481	1.45	3
0	1482	1.45	3
0	1483	1.45	3
0	1484	1.45	3
0	1517	1.5	3
0	1518	1.5	3
0	1519	1.5	3
0	1520	1.5	3
0	1521	1.5	3
0	1522	1.5	3
0	1523	1.5	3
0	1524	1.5	3
0	1565	1.55	3
0	1566	1.55	3
0	1567	1.55	3
0	1568	1.55	3
0	1601	1.6	3
0	1602	1.6	3
0	1603	1.6	3
0	1604	1.6	3
0	1605	1.6	3
0	1606	1.6	3
0	1607	1.6	3
0	1608	1.6	3
0	1649	1.65	3
0	1650	1.65	3
0	1651	1.65	3
0	1652	1.65	3
0	1889	1.7	3
0	1890	1.7	3
0	1891	1.7	3
0	1892	1.7	3
0	1893	1.7	3
0	1894	1.7	3
0	1895	1.7	3
0	1896	1.7	3
0	2009	1.75	3
0	2010	1.75	3
0	2011	1.75	3
0	2012	1.75	3
0	2045	1.8	3
0	2046	1.8	3
0	2047	1.8	3
0	2048	1.8	3
0	2049	1.8	3
0	2050	1.8	3
0	2051	1.8	3
0	2052	1.8	3
0	2093	1.85	3
0	2094	1.85	3
0	2095	1.85	3
0	2096	1.85	3
0	2129	1.9	3
0	2130	1.9	3
0	2131	1.9	3
0	2132	1.9	3
0	2133	1.9	3
0	2134	1.9	3
0	2135	1.9	3
0	2136	1.9	3
0	2177	1.95	3
0	2178	1.95	3
0	2179	1.95	3
0	2180	1.95	3
0	2213	2	3
0	2214	2	3
0	2215	2	3
0	2216	2	3
0	2217	2	3
0	2218	2	3
0	2219	2	3
0	2220	2	3
0	2261	2.05	3
0	2262	2.05	3
0	2263	2.05	3
0	2264	2.05	3
0	2301	2.1	3
0	2302	2.1	3
0	2303	2.1	3
0	2304	2.1	3
0	2305	2.1	3
0	2306	2.1	3
0	2307	2.1	3
0	2308	2.1	3
0	2353	2.15	3
0	2354	2.15	3
0	2355	2.15	3
0	2356	2.15	3
0	2389	2.2	3
0	2390	2.2	3
0	2391	2.2	3
0	2392	2.2	3
0	2393	2.2	3
0	2394	2.2	3
0	2395	2.2	3
0	2396	2.2	3
0	2641	2.25	3
0	2642	2.25	3
0	2643	2.25	3
0	2644	2.25	3
0	2749	2.3	3
0	2750	2.3	3
0	2751	2.3	3
0	2752	2.3	3
0	2753	2.3	3
0	2754	2.3	3
0	2755	2.3	3
0	2756	2.3	3
0	2797	2.35	3
0	2798	2.35	3
0	2799	2.35	3
0	2800	2.35	3
0	2833	2.4	3
0	2834	2.4	3
0	2835	2.4	3
0	2836	2.4	3
0	2837	2.4	3
0	2838	2.4	3
0	2839	2.4	3
0	2840	2.4	3
0	2881	2.45	3
0	2882	2.45	3
0	2883	2.45	3
0	2884	2.45	3
0	2917	2.5	3
0	2918	2.5	3
0	2919	2.5	3
0	2920	2.5	3
0	2921	2.5	3
0	2922	2.5	3
0	2923	2.5	3
0	2924	2.5	3
0	2965	2.55	3
0	2966	2.55	3
0	2967	2.55	3
0	2968	2.55	3
0	3001	2.6	3
0	3002	2.6	3
0	3003	2.6	3
0	3004	2.6	3
0	3005	2.6	3
0	3006	2.6	3
0	3007	2.6	3
0	3008	2.6	3
0	3049	2.65	3
0	3050	2.65	3
0	3051	2.65	3
0	3052	2.65	3
0	3085	2.7	3
0	3086	2.7	3
0	3087	2.7	3
0	3088	2.7	3
0	3089	2.7	3
0	3090	2.7	3
0	3091	2.7	3
0	3092	2.7	3
0	3133	2.75	3
0	3134	2.75	3
0	3135	2.75	3
0	3136	2.75	3
0	3373	2.8	3
0	3374	2.8	3
0	3375	2.8	3
0	3376	2.8	3
0	3377	2.8	3
0	3378	2.8	3
0	3379	2.8	3
0	3380	2.8	3
0	3493	2.85	3
0	3494	2.85	3
0	3495	2.85	3
0	3496	2.85	3
0	3529	2.9	3
0	3530	2.9	3
0	3531	2.9	3
0	3532	2.9	3
0	3533	2.9	3
0	3534	2.9	3
0	3535	2.9	3
0	3536	2.9	3
0	3577	2.95	3
0	3578	2.95	3
0	3579	2.95	3
0	3580	2.95	3
0	3613	3	3
0	3614	3	3
0	3615	3	3
0	3616	3	3
0	3617	3	3
0	3618	3	3
0	3619	3	3
0	3620	3	3
0	3661	3.05	3
0	3662	3.05	3
0	3663	3.05	3
0	3664	3.05	3
0	3701	3.1	3
0	3702	3.1	3
0	3703	3.1	3
0	3704	3.1	3
0	3705	3.1	3
0	3706	3.1	3
0	3707	3.1	3
0	3708	3.1	3
0	3753	3.15	3
0	3754	3.15	3
0	3755	3.15	3
0	3756	3.15	3
0	3789	3.2	3
0	3790	3.2	3
0	3791	3.2	3
0	3792	3.2	3
0	3793	3.2	3
0	3794	3.2	3
0	3795	3.2	3
0	3796	3.2	3
0	3837	3.25	3
0	3838	3.25	3
0	3839	3.25	3
0	3840	3.25	3
0	3873	3.3	3
0	3874	3.3	3
0	3875	3.3	3
0	3876	3.3	3
0	3877	3.3	3
0	3878	3.3	3
0	3879	3.3	3
0	3880	3.3	3
0	4125	3.35	3
0	4126	3.35	3
0	4127	3.35	3
0	4128	3.35	3
0	4233	3.4	3
0	4234	3.4	3
0	4235	3.4	3
0	4236	3.4	3
0	4237	3.4	3
0	4238	3.4	3
0	4239	3.4	3
0	4240	3.4	3
0	4281	3.45	3
0	4282	3.45	3
0	4283	3.45	3
0	4284	3.45	3
0	4317	3.5	3
0	4318	3.5	3
0	4319	3.5	3
0	4320	3.5	3
0	4321	3.5	3
0	4322	3.5	3
0	4323	3.5	3
0	4324	3.5	3
0	4365	3.55	3
0	4366	3.55	3
0	4367	3.55	3
0	4368	3.55	3
0	4401	3.6	3
0	4402	3.6	3
0	4403	3.6	3
0	4404	3.6	3
0	4405	3.6	3
0	4406	3.6	3
0	4407	3.6	3
0	4408	3.6	3
0	4449	3.65	3
0	4450	3.65	3
0	4451	3.65	3
0	4452	3.65	3
0	4485	3.7	3
0	4486	3.7	3
0	4487	3.7	3
0	4488	3.7	3
0	4489	3.7	3
0	4490	3.7	3
0	4491	3.7	3
0	4492	3.7	3
0	4533	3.75	3
0	4534	3.75	3
0	4535	3.75	3
0	4536	3.75	3
0	4569	3.8	3
0	4570	3.8	3
0	4571	3.8	3
0	4572	3.8	3
0	4573	3.8	3
0	4574	3.8	3
0	4575	3.8	3
0	4576	3.8	3
0	4617	3.85	3
0	4618	3.85	3
0	4619	3.85	3
0	4620	3.85	3
0	4857	3.9	3
0	4858	3.9	3
0	4859	3.9	3
0	4860	3.9	3
0	4861	3.9	3
0	4862	3.9	3
0	4863	3.9	3
0	4864	3.9	3
0	4977	3.95	3
0	4978	3.95	3
0	4979	3.95	3
0	4980	3.95	3
0	5013	4	3
0	5014	4	3
0	5015	4	3
0	5016	4	3
0	5017	4	3
0	5018	4	3
0	5019	4	3
0	5020	4	3
0	5061	4.05	3
0	5062	4.05	3
0	5063	4.05	3
0	5064	4.05	3
0	5101	4.1	3
0	5102	4.1	3
0	5103	4.1	3
0	5104	4.1	3
0	5105	4.1	3
0	5106	4.1	3
0	5107	4.1	3
0	5108	4.1	3
0	5153	4.15	3
0	5154	4.15	3
0	5155	4.15	3
0	5156	4.15	3
0	5189	4.2	3
0	5190	4.2	3
0	5191	4.2	3
0	5192	4.2	3
0	5193	4.2	3
0	5194	4.2	3
0	5195	4.2	3
0	5196	4.2	3
0	5237	4.25	3
0	5238	4.25	3
0	5239	4.25	3
0	5240	4.25	3
0	5273	4.3	3
0	5274	4.3	3
0	5275	4.3	3
0	5276	4.3	3
0	5277	4.3	3
0	5278	4.3	3
0	5279	4.3	3
0	5280	4.3	3
0	5321	4.35	3
0	5322	4.35	3
0	5323	4.35	3
0	5324	4.35	3
0	5357	4.4	3
0	5358	4.4	3
0	5359	4.4	3
0	5360	4.4	3
0	5361	4.4	3
0	5362	4.4	3
0	5363	4.4	3
0	5364	4.4	3
0	5609	4.45	3
0	5610	4.45	3
0	5611	4.45	3
0	5612	4.45	3
0	5717	4.5	3
0	5718	4.5	3
0	5719	4.5	3
0	5720	4.5	3
0	5721	4.5	3
0	5722	4.5	3
0	5723	4.5	3
0	5724	4.5	3
0	5765	4.55	3
0	5766	4.55	3
0	5767	4.55	3
0	5768	4.55	3
0	5801	4.6	3
0	5802	4.6	3
0	5803	4.6	3
0	5804	4.6	3
0	5805	4.6	3
0	5806	4.6	3
0	5807	4.6	3
0	5808	4.6	3
0	5849	4.65	3
0	5850	4.65	3
0	5851	4.65	3
0	5852	4.65	3
0	5885	4.7	3
0	5886	4.7	3
0	5887	4.7	3
0	5888	4.7	3
0	5889	4.7	3
0	5890	4.7	3
0	5891	4.7	3
0	5892	4.7	3
0	5933	4.75	3
0	5934	4.75	3
0	5935	4.75	3
0	5936	4.75	3
0	5969	4.8	3
0	5970	4.8	3
0	5971	4.8	3
0	5972	4.8	3
0	5973	4.8	3
0	5974	4.8	3
0	5975	4.8	3
0	5976	4.8	3
0	6017	4.85	3
0	6018	4.85	3
0	6019	4.85	3
0	6020	4.85	3
0	6053	4.9	3
0	6054	4.9	3
0	6055	4.9	3
0	6056	4.9	3
0	6057	4.9	3
0	6058	4.9	3
0	6059	4.9	3
0	6060	4.9	3
0	6101	4.95	3
0	6102	4.95	3
0	6103	4.95	3
0	6104	4.95	3
0	6345	5	3
0	6346	5	3
0	6347	5	3
0	6348	5	3
0	6349	5	3
0	6350	5	3
0	6351	5	3
0	6352	5	3
0	6465	5.05	3
0	6466	5.05	3
0	6467	5.05	3
0	6468	5.05	3
0	6505	5.1	3
0	6506	5.1	3
0	6507	5.1	3
0	6508	5.1	3
0	6509	5.1	3
0	6510	5.1	3
0	6511	5.1	3
0	6512	5.1	3
0	6557	5.15	3
0	6558	5.15	3
0	6559	5.15	3
0	6560	5.15	3
0	6593	5.2	3
0	6594	5.2	3
0	6595	5.2	3
0	6596	5.2	3
0	6597	5.2	3
0	6598	5.2	3
0	6599	5.2	3
0	6600	5.2	3
0	6641	5.25	3
0	6642	5.25	3
0	6643	5.25	3
0	6644	5.25	3
0	6677	5.3	3
0	6678	5.3	3
0	6679	5.3	3
0	6680	5.3	3
0	6681	5.3	3
0	6682	5.3	3
0	6683	5.3	3
0	6684	5.3	3
0	6725	5.35	3
0	6726	5.35	3
0	6727	5.35	3
0	6728	5.35	3
0	6761	5.4	3
0	6762	5.4	3
0	6763	5.4	3
0	6764	5.4	3
0	6765	5.4	3
0	6766	5.4	3
0	6767	5.4	3
0	6768	5.4	3
0	6809	5.45	3
0	6810	5.45	3
0	6811	5.45	3
0	6812	5.45	3
0	6845	5.5	3
0	6846	5.5	3
0	6847	5.5	3
0	6848	5.5	3
0	6849	5.5	3
0	6850	5.5	3
0	6851	5.5	3
0	6852	5.5	3
0	7097	5.55	3
0	7098	5.55	3
0	7099	5.55	3
0	7100	5.55	3
0	7205	5.6	3
0	7206	5.6	3
0	7207	5.6	3
0	7208	5.6	3
0	7209	5.6	3
0	7210	5.6	3
0	7211	5.6	3
0	7212	5.6	3
0	7253	5.65	3
0	7254	5.65	3
0	7255	5.65	3
0	7256	5.65	3
0	7289	5.7	3
0	7290	5.7	3
0	7291	5.7	3
0	7292	5.7	3
0	7293	5.7	3
0	7294	5.7	3
0	7295	5.7	3
0	7296	5.7	3
0	7337	5.75	3
0	7338	5.75	3
0	7339	5.75	3
0	7340	5.75	3
0	7373	5.8	3
0	7374	5.8	3
0	7375	5.8	3
0	7376	5.8	3
0	7377	5.8	3
0	7378	5.8	3
0	7379	5.8	3
0	7380	5.8	3
0	7421	5.85	3
0	7422	5.85	3
0	7423	5.85	3
0	7424	5.85	3
0	7457	5.9	3
0	7458	5.9	3
0	7459	5.9	3
0	7460	5.9	3
0	7461	5.9	3
0	7462	5.9	3
0	7463	5.9	3
0	7464	5.9	3
0	7505	5.95	3
0	7506	5.95	3
0	7507	5.95	3
0	7508	5.95	3
0	7545	6	3
0	7546	6	3
0	7547	6	3
0	7548	6	3
0	7549	6	3
0	7550	6	3
0	7551	6	3
0	7552	6	3
0	7593	6.05	3
0	7594	6.05	3
0	7595	6.05	3
0	7596	6.05	3
0	7837	6.1	3
0	7838	6.1	3
0	7839	6.1	3
0	7840	6.1	3
0	7841	6.1	3
0	7842	6.1	3
0	7843	6.1	3
0	7844	6.1	3
0	7961	6.15	3
0	7962	6.15	3
0	7963	6.15	3
0	7964	6.15	3
0	7997	6.2	3
0	7998	6.2	3
0	7999	6.2	3
0	8000	6.2	3
0	8001	6.2	3
0	8002	6.2	3
0	8003	6.2	3
0	8004	6.2	3
0	8045	6.25	3
0	8046	6.25	3
0	8047	6.25	3
0	8048	6.25	3
0	8081	6.3	3
0	8082	6.3	3
0	8083	6.3	3
0	8084	6.3	3
0	8085	6.3	3
0	8086	6.3	3
0	8087	6.3	3
0	8088	6.3	3
0	8129	6.35	3
0	8130	6.35	3
0	8131	6.35	3
0	8132	6.35	3
0	8165	6.4	3
0	8166	6.4	3
0	8167	6.4	3
0	8168	6.4	3
0	8169	6.4	3
0	8170	6.4	3
0	8171	6.4	3
0	8172	6.4	3
0	8213	6.45	3
0	8214	6.45	3
0	8215	6.45	3
0	8216	6.45	3
0	8249	6.5	3
0	8250	6.5	3
0	8251	6.5	3
0	8252	6.5	3
0	8253	6.5	3
0	8254	6.5	3
0	8255	6.5	3
0	8256	6.5	3
0	8297	6.55	3
0	8298	6.55	3
0	8299	6.55	3
0	8300	6.55	3
0	8333	6.6	3
0	8334	6.6	3
0	8335	6.6	3
0	8336	6.6	3
0	8337	6.6	3
0	8338	6.6	3
0	8339	6.6	3
0	8340	6.6	3
0	8585	6.65	3
0	8586	6.65	3
0	8587	6.65	3
0	8588	6.65	3
0	8693	6.7	3
0	8694	6.7	3
0	8695	6.7	3
0	8696	6.7	3
0	8697	6.7	3
0	8698	6.7	3
0	8699	6.7	3
0	8700	6.7	3
0	8741	6.75	3
0	8742	6.75	3
0	8743	6.75	3
0	8744	6.75	3
0	8777	6.8	3
0	8778	6.8	3
0	8779	6.8	3
0	8780	6.8	3
0	8781	6.8	3
0	8782	6.8	3
0	8783	6.8	3
0	8784	6.8	3
0	8825	6.85	3
0	8826	6.85	3
0	8827	6.85	3
0	8828	6.85	3
0	8861	6.9	3
0	8862	6.9	3
0	8863	6.9	3
0	8864	6.9	3
0	8865	6.9	3
0	8866	6.9	3
0	8867	6.9	3
0	8868	6.9	3
0	8909	6.95	3
0	8910	6.95	3
0	8911	6.95	3
0	8912	6.95	3
0	8949	7	3
0	8950	7	3
0	8951	7	3
0	8952	7	3
0	8953	7	3
0	8954	7	3
0	8955	7	3
0	8956	7	3
0	8997	7.05	3
0	8998	7.05	3
0	8999	7.05	3
0	9000	7.05	3
0	9037	7.1	3
0	9038	7.1	3
0	9039	7.1	3
0	9040	7.1	3
0	9041	7.1	3
0	9042	7.1	3
0	9043	7.1	3
0	9044	7.1	3
0	9089	7.15	3
0	9090	7.15	3
0	9091	7.15	3
0	9092	7.15	3
0	9329	7.2	3
0	9330	7.2	3
0	9331	7.2	3
0	9332	7.2	3
0	9333	7.2	3
0	9334	7.2	3
0	9335	7.2	3
0	9336	7.2	3
0	9449	7.25	3
0	9450	7.25	3
0	9451	7.25	3
0	9452	7.25	3
0	9485	7.3	3
0	9486	7.3	3
0	9487	7.3	3
0	9488	7.3	3
0	9489	7.3	3
0	9490	7.3	3
0	9491	7.3	3
0	9492	7.3	3
0	9533	7.35	3
0	9534	7.35	3
0	9535	7.35	3
0	9536	7.35	3
0	9569	7.4	3
0	9570	7.4	3
0	9571	7.4	3
0	9572	7.4	3
0	9573	7.4	3
0	9574	7.4	3
0	9575	7.4	3
0	9576	7.4	3
0	9617	7.45	3
0	9618	7.45	3
0	9619	7.45	3
0	9620	7.45	3
0	9653	7.5	3
0	9654	7.5	3
0	9655	7.5	3
0	9656	7.5	3
0	9657	7.5	3
0	9658	7.5	3
0	9659	7.5	3
0	9660	7.5	3
0	9701	7.55	3
0	9702	7.55	3
0	9703	7.55	3
0	9704	7.55	3
0	9737	7.6	3
0	9738	7.6	3
0	9739	7.6	3
0	9740	7.6	3
0	9741	7.6	3
0	9742	7.6	3
0	9743	7.6	3
0	9744	7.6	3
0	9785	7.65	3
0	9786	7.65	3
0	9787	7.65	3
0	9788	7.65	3
0	9821	7.7	3
0	9822	7.7	3
0	9823	7.7	3
0	9824	7.7	3
0	9825	7.7	3
0	9826	7.7	3
0	9827	7.7	3
0	9828	7.7	3
0	10073	7.75	3
0	10074	7.75	3
0	10075	7.75	3
0	10076	7.75	3
0	10181	7.8	3
0	10182	7.8	3
0	10183	7.8	3
0	10184	7.8	3
0	10185	7.8	3
0	10186	7.8	3
0	10187	7.8	3
0	10188	7.8	3
0	10229	7.85	3
0	10230	7.85	3
0	10231	7.85	3
0	10232	7.85	3
0	10265	7.9	3
0	10266	7.9	3
0	10267	7.9	3
0	10268	7.9	3
0	10269	7.9	3
0	10270	7.9	3
0	10271	7.9	3
0	10272	7.9	3
0	10313	7.95	3
0	10314	7.95	3
0	10315	7.95	3
0	10316	7.95	3
0	10353	8	3
0	10354	8	3
0	10355	8	3
0	10356	8	3
0	10357	8	3
0	10358	8	3
0	10359	8	3
0	10360	8	3
0	10401	8.05	3
0	10402	8.05	3
0	10403	8.05	3
0	10404	8.05	3
0	10441	8.1	3
0	10442	8.1	3
0	10443	8.1	3
0	10444	8.1	3
0	10445	8.1	3
0	10446	8.1	3
0	10447	8.1	3
0	10448	8.1	3
0	10493	8.15	3
0	10494	8.15	3
0	10495	8.15	3
0	10496	8.15	3
0	10529	8.2	3
0	10530	8.2	3
0	10531	8.2	3
0	10532	8.2	3
0	10533	8.2	3
0	10534	8.2	3
0	10535	8.2	3
0	10536	8.2	3
0	10577	8.25	3
0	10578	8.25	3
0	10579	8.25	3
0	10580	8.25	3
0	10817	8.3	3
0	10818	8.3	3
0	10819	8.3	3
0	10820	8.3	3
0	10821	8.3	3
0	10822	8.3	3
0	10823	8.3	3
0	10824	8.3	3
0	10937	8.35	3
0	10938	8.35	3
0	10939	8.35	3
0	10940	8.35	3
0	10973	8.4	3
0	10974	8.4	3
0	10975	8.4	3
0	10976	8.4	3
0	10977	8.4	3
0	10978	8.4	3
0	10979	8.4	3
0	10980	8.4	3
0	11021	8.45	3
0	11022	8.45	3
0	11023	8.45	3
0	11024	8.45	3
0	11057	8.5	3
0	11058	8.5	3
0	11059	8.5	3
0	11060	8.5	3
0	11061	8.5	3
0	11062	8.5	3
0	11063	8.5	3
0	11064	8.5	3
0	11105	8.55	3
0	11106	8.55	3
0	11107	8.55	3
0	11108	8.55	3
0	11141	8.6	3
0	11142	8.6	3
0	11143	8.6	3
0	11144	8.6	3
0	11145	8.6	3
0	11146	8.6	3
0	11147	8.6	3
0	11148	8.6	3
0	11189	8.65	3
0	11190	8.65	3
0	11191	8.65	3
0	11192	8.65	3
0	11225	8.7	3
0	11226	8.7	3
0	11227	8.7	3
0	11228	8.7	3
0	11229	8.7	3
0	11230	8.7	3
0	11231	8.7	3
0	11232	8.7	3
0	11273	8.75	3
0	11274	8.75	3
0	11275	8.75	3
0	11276	8.75	3
0	11309	8.8	3
0	11310	8.8	3
0	11311	8.8	3
0	11312	8.8	3
0	11313	8.8	3
0	11314	8.8	3
0	11315	8.8	3
0	11316	8.8	3
0	11561	8.85	3
0	11562	8.85	3
0	11563	8.85	3
0	11564	8.85	3
0	11669	8.9	3
0	11670	8.9	3
0	11671	8.9	3
0	11672	8.9	3
0	11673	8.9	3
0	11674	8.9	3
0	11675	8.9	3
0	11676	8.9	3
0	11717	8.95	3
0	11718	8.95	3
0	11719	8.95	3
0	11720	8.95	3
0	11757	9	3
0	11758	9	3
0	11759	9	3
0	11760	9	3
0	11761	9	3
0	11762	9	3
0	11763	9	3
0	11764	9	3
0	11805	9.05	3
0	11806	9.05	3
0	11807	9.05	3
0	11808	9.05	3
0	11845	9.1	3
0	11846	9.1	3
0	11847	9.1	3
0	11848	9.1	3
0	11849	9.1	3
0	11850	9.1	3
0	11851	9.1	3
0	11852	9.1	3
0	11897	9.15	3
0	11898	9.15	3
0	11899	9.15	3
0	11900	9.15	3
0	11933	9.2	3
0	11934	9.2	3
0	11935	9.2	3
0	11936	9.2	3
0	11937	9.2	3
0	11938	9.2	3
0	11939	9.2	3
0	11940	9.2	3
0	11981	9.25	3
0	11982	9.25	3
0	11983	9.25	3
0	11984	9.25	3
0	12017	9.3	3
0	12018	9.3	3
0	12019	9.3	3
0	12020	9.3	3
0	12021	9.3	3
0	12022	9.3	3
0	12023	9.3	3
0	12024	9.3	3
0	12065	9.35	3
0	12066	9.35	3
0	12067	9.35	3
0	12068	9.35	3
0	12305	9.4	3
0	12306	9.4	3
0	12307	9.4	3
0	12308	9.4	3
0	12309	9.4	3
0	12310	9.4	3
0	12311	9.4	3
0	12312	9.4	3
0	12425	9.45	3
0	12426	9.45	3
0	12427	9.45	3
0	12428	9.45	3
0	12461	9.5	3
0	12462	9.5	3
0	12463	9.5	3
0	12464	9.5	3
0	12465	9.5	3
0	12466	9.5	3
0	12467	9.5	3
0	12468	9.5	3
0	12509	9.55	3
0	12510	9.55	3
0	12511	9.55	3
0	12512	9.55	3
0	12545	9.6	3
0	12546	9.6	3
0	12547	9.6	3
0	12548	9.6	3
0	12549	9.6	3
0	12550	9.6	3
0	12551	9.6	3
0	12552	9.6	3
0	12593	9.65	3
0	12594	9.65	3
0	12595	9.65	3
0	12596	9.65	3
0	12629	9.7	3
0	12630	9.7	3
0	12631	9.7	3
0	12632	9.7	3
0	12633	9.7	3
0	12634	9.7	3
0	12635	9.7	3
0	12636	9.7	3
0	12677	9.75	3
0	12678	9.75	3
0	12679	9.75	3
0	12680	9.75	3
0	12713	9.8	3
0	12714	9.8	3
0	12715	9.8	3
0	12716	9.8	3
0	12717	9.8	3
0	12718	9.8	3
0	12719	9.8	3
0	12720	9.8	3
0	12761	9.85	3
0	12762	9.85	3
0	12763	9.85	3
0	12764	9.85	3
0	12797	9.9	3
0	12798	9.9	3
0	12799	9.9	3
0	12800	9.9	3
0	12801	9.9	3
0	12802	9.9	3
0	12803	9.9	3
0	12804	9.9	3
0	13049	9.95	3
0	13050	9.95	3
0	13051	9.95	3
0	13052	9.95	3
0	13161	10	3
0	13162	10	3
0	13163	10	3
0	13164	10	3
0	13165	10	3
0	13166	10	3
0	13167	10	3
0	13168	10	3
0	13209	10.05	3
0	13210	10.05	3
0	13211	10.05	3
0	13212	10.05	3
0	13249	10.1	3
0	13250	10.1	3
0	13251	10.1	3
0	13252	10.1	3
0	13253	10.1	3
0	13254	10.1	3
0	13255	10.1	3
0	13256	10.1	3
0	13301	10.15	3
0	13302	10.15	3
0	13303	10.15	3
0	13304	10.15	3
0	13337	10.2	3
0	13338	10.2	3
0	13339	10.2	3
0	13340	10.2	3
0	13341	10.2	3
0	13342	10.2	3
0	13343	10.2	3
0	13344	10.2	3
0	13385	10.25	3
0	13386	10.25	3
0	13387	10.25	3
0	13388	10.25	3
0	13421	10.3	3
0	13422	10.3	3
0	13423	10.3	3
0	13424	10.3	3
0	13425	10.3	3
0	13426	10.3	3
0	13427	10.3	3
0	13428	10.3	3
0	13469	10.35	3
0	13470	10.35	3
0	13471	10.35	3
0	13472	10.35	3
0	13505	10.4	3
0	13506	10.4	3
0	13507	10.4	3
0	13508	10.4	3
0	13509	10.4	3
0	13510	10.4	3
0	13511	10.4	3
0	13512	10.4	3
0	13553	10.45	3
0	13554	10.45	3
0	13555	10.45	3
0	13556	10.45	3
0	13793	10.5	3
0	13794	10.5	3
0	13795	10.5	3
0	13796	10.5	3
0	13797	10.5	3
0	13798	10.5	3
0	13799	10.5	3
0	13800	10.5	3
0	14049	10.55	3
0	14050	10.55	3
0	14051	10.55	3
0	14052	10.55	3
0	14209	10.6	3
0	14210	10.6	3
0	14211	10.6	3
0	14212	10.6	3
0	14213	10.6	3
0	14214	10.6	3
0	14215	10.6	3
0	14216	10.6	3
0	14393	10.65	3
0	14394	10.65	3
0	14395	10.65	3
0	14396	10.65	3
0	14473	10.7	3
0	14474	10.7	3
0	14475	10.7	3
0	14476	10.7	3
0	14477	10.7	3
0	14478	10.7	3
0	14479	10.7	3
0	14480	10.7	3
0	14521	10.75	3
0	14522	10.75	3
0	14523	10.75	3
0	14524	10.75	3
0	14557	10.8	3
0	14558	10.8	3
0	14559	10.8	3
0	14560	10.8	3
0	14561	10.8	3
0	14562	10.8	3
0	14563	10.8	3
0	14564	10.8	3
0	14605	10.85	3
0	14606	10.85	3
0	14607	10.85	3
0	14608	10.85	3
0	14641	10.9	3
0	14642	10.9	3
0	14643	10.9	3
0	14644	10.9	3
0	14645	10.9	3
0	14646	10.9	3
0	14647	10.9	3
0	14648	10.9	3
0	14689	10.95	3
0	14690	10.95	3
0	14691	10.95	3
0	14692	10.95	3
0	14729	11	3
0	14730	11	3
0	14731	11	3
0	14732	11	3
0	14733	11	3
0	14734	11	3
0	14735	11	3
0	14736	11	3
0	15003	11.05	3
0	15004	11.05	3
0	15005	11.05	3
0	15006	11.05	3
0	15164	11.1	3
0	15165	11.1	3
0	15166	11.1	3
0	15167	11.1	3
0	15168	11.1	3
0	15169	11.1	3
0	15170	11.1	3
0	15171	11.1	3
0	15282	11.15	3
0	15283	11.15	3
0	15284	11.15	3
0	15285	11.15	3
0	15394	11.2	3
0	15395	11.2	3
0	15396	11.2	3
0	15397	11.2	3
0	15398	11.2	3
0	15399	11.2	3
0	15400	11.2	3
0	15401	11.2	3
0	15461	11.25	3
0	15462	11.25	3
0	15463	11.25	3
0	15464	11.25	3
0	15497	11.3	3
0	15498	11.3	3
0	15499	11.3	3
0	15500	11.3	3
0	15501	11.3	3
0	15502	11.3	3
0	15503	11.3	3
0	15504	11.3	3
0	15545	11.35	3
0	15546	11.35	3
0	15547	11.35	3
0	15548	11.35	3
0	15581	11.4	3
0	15582	11.4	3
0	15583	11.4	3
0	15584	11.4	3
0	15585	11.4	3
0	15586	11.4	3
0	15587	11.4	3
0	15588	11.4	3
0	15629	11.45	3
0	15630	11.45	3
0	15631	11.45	3
0	15632	11.45	3
0	15665	11.5	3
0	15666	11.5	3
0	15667	11.5	3
0	15668	11.5	3
0	15669	11.5	3
0	15670	11.5	3
0	15671	11.5	3
0	15672	11.5	3
0	15713	11.55	3
0	15714	11.55	3
0	15715	11.55	3
0	15716	11.55	3
0	15955	11.6	3
0	15956	11.6	3
0	15957	11.6	3
0	15958	11.6	3
0	15959	11.6	3
0	15960	11.6	3
0	15961	11.6	3
0	15962	11.6	3
0	16136	11.65	3
0	16137	11.65	3
0	16138	11.65	3
0	16139	11.65	3
0	16172	11.7	3
0	16173	11.7	3
0	16174	11.7	3
0	16175	11.7	3
0	16176	11.7	3
0	16177	11.7	3
0	16178	11.7	3
0	16179	11.7	3
0	16220	11.75	3
0	16221	11.75	3
0	16222	11.75	3
0	16223	11.75	3
0	16256	11.8	3
0	16257	11.8	3
0	16258	11.8	3
0	16259	11.8	3
0	16260	11.8	3
0	16261	11.8	3
0	16262	11.8	3
0	16263	11.8	3
0	16304	11.85	3
0	16305	11.85	3
0	16306	11.85	3
0	16307	11.85	3
0	16340	11.9	3
0	16341	11.9	3
0	16342	11.9	3
0	16343	11.9	3
0	16344	11.9	3
0	16345	11.9	3
0	16346	11.9	3
0	16347	11.9	3
0	16388	11.95	3
0	16389	11.95	3
0	16390	11.95	3
0	16391	11.95	3
0	16426	12	3
0	16427	12	3
0	16428	12	3
0	16429	12	3
0	16430	12	3
0	16431	12	3
0	16432	12	3
0	16433	12	3
0	16474	12.05	3
0	16475	12.05	3
0	16476	12.05	3
0	16477	12.05	3
0	16514	12.1	3
0	16515	12.1	3
0	16516	12.1	3
0	16517	12.1	3
0	16518	12.1	3
0	16519	12.1	3
0	16520	12.1	3
0	16521	12.1	3
0	16773	12.15	3
0	16774	12.15	3
0	16775	12.15	3
0	16776	12.15	3
0	16942	12.2	3
0	16943	12.2	3
0	16944	12.2	3
0	16945	12.2	3
0	16946	12.2	3
0	16947	12.2	3
0	16948	12.2	3
0	16949	12.2	3
0	16990	12.25	3
0	16991	12.25	3
0	16992	12.25	3
0	16993	12.25	3
0	17026	12.3	3
0	17027	12.3	3
0	17028	12.3	3
0	17029	12.3	3
0	17030	12.3	3
0	17031	12.3	3
0	17032	12.3	3
0	17033	12.3	3
0	17074	12.35	3
0	17075	12.35	3
0	17076	12.35	3
0	17077	12.35	3
0	17110	12.4	3
0	17111	12.4	3
0	17112	12.4	3
0	17113	12.4	3
0	17114	12.4	3
0	17115	12.4	3
0	17116	12.4	3
0	17117	12.4	3
0	17158	12.45	3
0	17159	12.45	3
0	17160	12.45	3
0	17161	12.45	3
0	17194	12.5	3
0	17195	12.5	3
0	17196	12.5	3
0	17197	12.5	3
0	17198	12.5	3
0	17199	12.5	3
0	17200	12.5	3
0	17201	12.5	3
0	17242	12.55	3
0	17243	12.55	3
0	17244	12.55	3
0	17245	12.55	3
0	17278	12.6	3
0	17279	12.6	3
0	17280	12.6	3
0	17281	12.6	3
0	17282	12.6	3
0	17283	12.6	3
0	17284	12.6	3
0	17285	12.6	3
0	17326	12.65	3
0	17327	12.65	3
0	17328	12.65	3
0	17329	12.65	3
0	17566	12.7	3
0	17567	12.7	3
0	17568	12.7	3
0	17569	12.7	3
0	17570	12.7	3
0	17571	12.7	3
0	17572	12.7	3
0	17573	12.7	3
0	17686	12.75	3
0	17687	12.75	3
0	17688	12.75	3
0	17689	12.75	3
0	17722	12.8	3
0	17723	12.8	3
0	17724	12.8	3
0	17725	12.8	3
0	17726	12.8	3
0	17727	12.8	3
0	17728	12.8	3
0	17729	12.8	3
0	17770	12.85	3
0	17771	12.85	3
0	17772	12.85	3
0	17773	12.85	3
0	17806	12.9	3
0	17807	12.9	3
0	17808	12.9	3
0	17809	12.9	3
0	17810	12.9	3
0	17811	12.9	3
0	17812	12.9	3
0	17813	12.9	3
0	17854	12.95	3
0	17855	12.95	3
0	17856	12.95	3
0	17857	12.95	3
0	17890	13	3
0	17891	13	3
0	17892	13	3
0	17893	13	3
0	17894	13	3
0	17895	13	3
0	17896	13	3
0	17897	13	3
0	17938	13.05	3
0	17939	13.05	3
0	17940	13.05	3
0	17941	13.05	3
0	17978	13.1	3
0	17979	13.1	3
0	17980	13.1	3
0	17981	13.1	3
0	17982	13.1	3
0	17983	13.1	3
0	17984	13.1	3
0	17985	13.1	3
0	18031	13.15	3
0	18032	13.15	3
0	18033	13.15	3
0	18034	13.15	3
0	18067	13.2	3
0	18068	13.2	3
0	18069	13.2	3
0	18070	13.2	3
0	18071	13.2	3
0	18072	13.2	3
0	18073	13.2	3
0	18074	13.2	3
0	18321	13.25	3
0	18322	13.25	3
0	18323	13.25	3
0	18324	13.25	3
0	18490	13.3	3
0	18491	13.3	3
0	18492	13.3	3
0	18493	13.3	3
0	18494	13.3	3
0	18495	13.3	3
0	18496	13.3	3
0	18497	13.3	3
0	18538	13.35	3
0	18539	13.35	3
0	18540	13.35	3
0	18541	13.35	3
0	18574	13.4	3
0	18575	13.4	3
0	18576	13.4	3
0	18577	13.4	3
0	18578	13.4	3
0	18579	13.4	3
0	18580	13.4	3
0	18581	13.4	3
0	18622	13.45	3
0	18623	13.45	3
0	18624	13.45	3
0	18625	13.45	3
0	18658	13.5	3
0	18659	13.5	3
0	18660	13.5	3
0	18661	13.5	3
0	18662	13.5	3
0	18663	13.5	3
0	18664	13.5	3
0	18665	13.5	3
0	18706	13.55	3
0	18707	13.55	3
0	18708	13.55	3
0	18709	13.55	3
0	18742	13.6	3
0	18743	13.6	3
0	18744	13.6	3
0	18745	13.6	3
0	18746	13.6	3
0	18747	13.6	3
0	18748	13.6	3
0	18749	13.6	3
0	18790	13.65	3
0	18791	13.65	3
0	18792	13.65	3
0	18793	13.65	3
0	18826	13.7	3
0	18827	13.7	3
0	18828	13.7	3
0	18829	13.7	3
0	18830	13.7	3
0	18831	13.7	3
0	18832	13.7	3
0	18833	13.7	3
0	18874	13.75	3
0	18875	13.75	3
0	18876	13.75	3
0	18877	13.75	3
0	19114	13.8	3
0	19115	13.8	3
0	19116	13.8	3
0	19117	13.8	3
0	19118	13.8	3
0	19119	13.8	3
0	19120	13.8	3
0	19121	13.8	3
0	19234	13.85	3
0	19235	13.85	3
0	19236	13.85	3
0	19237	13.85	3
0	19270	13.9	3
0	19271	13.9	3
0	19272	13.9	3
0	19273	13.9	3
0	19274	13.9	3
0	19275	13.9	3
0	19276	13.9	3
0	19277	13.9	3
0	19318	13.95	3
0	19319	13.95	3
0	19320	13.95	3
0	19321	13.95	3
0	19354	14	3
0	19355	14	3
0	19356	14	3
0	19357	14	3
0	19358	14	3
0	19359	14	3
0	19360	14	3
0	19361	14	3
0	19402	14.05	3
0	19403	14.05	3
0	19404	14.05	3
0	19405	14.05	3
0	19442	14.1	3
0	19443	14.1	3
0	19444	14.1	3
0	19445	14.1	3
0	19446	14.1	3
0	19447	14.1	3
0	19448	14.1	3
0	19449	14.1	3
0	19495	14.15	3
0	19496	14.15	3
0	19497	14.15	3
0	19498	14.15	3
0	19531	14.2	3
0	19532	14.2	3
0	19533	14.2	3
0	19534	14.2	3
0	19535	14.2	3
0	19536	14.2	3
0	19537	14.2	3
0	19538	14.2	3
0	19579	14.25	3
0	19580	14.25	3
0	19581	14.25	3
0	19582	14.25	3
0	19615	14.3	3
0	19616	14.3	3
0	19617	14.3	3
0	19618	14.3	3
0	19619	14.3	3
0	19620	14.3	3
0	19621	14.3	3
0	19622	14.3	3
0	19869	14.35	3
0	19870	14.35	3
0	19871	14.35	3
0	19872	14.35	3
0	20038	14.4	3
0	20039	14.4	3
0	20040	14.4	3
0	20041	14.4	3
0	20042	14.4	3
0	20043	14.4	3
0	20044	14.4	3
0	20045	14.4	3
0	20086	14.45	3
0	20087	14.45	3
0	20088	14.45	3
0	20089	14.45	3
0	20122	14.5	3
0	20123	14.5	3
0	20124	14.5	3
0	20125	14.5	3
0	20126	14.5	3
0	20127	14.5	3
0	20128	14.5	3
0	20129	14.5	3
0	20170	14.55	3
0	20171	14.55	3
0	20172	14.55	3
0	20173	14.55	3
0	20206	14.6	3
0	20207	14.6	3
0	20208	14.6	3
0	20209	14.6	3
0	20210	14.6	3
0	20211	14.6	3
0	20212	14.6	3
0	20213	14.6	3
0	20254	14.65	3
0	20255	14.65	3
0	20256	14.65	3
0	20257	14.65	3
0	20290	14.7	3
0	20291	14.7	3
0	20292	14.7	3
0	20293	14.7	3
0	20294	14.7	3
0	20295	14.7	3
0	20296	14.7	3
0	20297	14.7	3
0	20338	14.75	3
0	20339	14.75	3
0	20340	14.75	3
0	20341	14.75	3
0	20374	14.8	3
0	20375	14.8	3
0	20376	14.8	3
0	20377	14.8	3
0	20378	14.8	3
0	20379	14.8	3
0	20380	14.8	3
0	20381	14.8	3
0	20422	14.85	3
0	20423	14.85	3
0	20424	14.85	3
0	20425	14.85	3
0	20662	14.9	3
0	20663	14.9	3
0	20664	14.9	3
0	20665	14.9	3
0	20666	14.9	3
0	20667	14.9	3
0	20668	14.9	3
0	20669	14.9	3
0	20782	14.95	3
0	20783	14.95	3
0	20784	14.95	3
0	20785	14.95	3
0	20818	15	3
0	20819	15	3
0	20820	15	3
0	20821	15	3
0	20822	15	3
0	20823	15	3
0	20824	15	3
0	20825	15	3
0	20866	15.05	3
0	20867	15.05	3
0	20868	15.05	3
0	20869	15.05	3
0	20906	15.1	3
0	20907	15.1	3
0	20908	15.1	3
0	20909	15.1	3
0	20910	15.1	3
0	20911	15.1	3
0	20912	15.1	3
0	20913	15.1	3
0	20959	15.15	3
0	20960	15.15	3
0	20961	15.15	3
0	20962	15.15	3
0	20995	15.2	3
0	20996	15.2	3
0	20997	15.2	3
0	20998	15.2	3
0	20999	15.2	3
0	21000	15.2	3
0	21001	15.2	3
0	21002	15.2	3
0	21043	15.25	3
0	21044	15.25	3
0	21045	15.25	3
0	21046	15.25	3
0	21079	15.3	3
0	21080	15.3	3
0	21081	15.3	3
0	21082	15.3	3
0	21083	15.3	3
0	21084	15.3	3
0	21085	15.3	3
0	21086	15.3	3
0	21127	15.35	3
0	21128	15.35	3
0	21129	15.35	3
0	21130	15.35	3
0	21163	15.4	3
0	21164	15.4	3
0	21165	15.4	3
0	21166	15.4	3
0	21167	15.4	3
0	21168	15.4	3
0	21169	15.4	3
0	21170	15.4	3
0	21417	15.45	3
0	21418	15.45	3
0	21419	15.45	3
0	21420	15.45	3
0	21586	15.5	3
0	21587	15.5	3
0	21588	15.5	3
0	21589	15.5	3
0	21590	15.5	3
0	21591	15.5	3
0	21592	15.5	3
0	21593	15.5	3
0	21634	15.55	3
0	21635	15.55	3
0	21636	15.55	3
0	21637	15.55	3
0	21670	15.6	3
0	21671	15.6	3
0	21672	15.6	3
0	21673	15.6	3
0	21674	15.6	3
0	21675	15.6	3
0	21676	15.6	3
0	21677	15.6	3
0	21718	15.65	3
0	21719	15.65	3
0	21720	15.65	3
0	21721	15.65	3
0	21754	15.7	3
0	21755	15.7	3
0	21756	15.7	3
0	21757	15.7	3
0	21758	15.7	3
0	21759	15.7	3
0	21760	15.7	3
0	21761	15.7	3
0	21802	15.75	3
0	21803	15.75	3
0	21804	15.75	3
0	21805	15.75	3
0	21838	15.8	3
0	21839	15.8	3
0	21840	15.8	3
0	21841	15.8	3
0	21842	15.8	3
0	21843	15.8	3
0	21844	15.8	3
0	21845	15.8	3
0	21886	15.85	3
0	21887	15.85	3
0	21888	15.85	3
0	21889	15.85	3
0	21922	15.9	3
0	21923	15.9	3
0	21924	15.9	3
0	21925	15.9	3
0	21926	15.9	3
0	21927	15.9	3
0	21928	15.9	3
0	21929	15.9	3
0	21970	15.95	3
0	21971	15.95	3
0	21972	15.95	3
0	21973	15.95	3
0	22212	16	3
0	22213	16	3
0	22214	16	3
0	22215	16	3
0	22216	16	3
0	22217	16	3
0	22218	16	3
0	22219	16	3
0	22332	16.05	3
0	22333	16.05	3
0	22334	16.05	3
0	22335	16.05	3
0	22372	16.1	3
0	22373	16.1	3
0	22374	16.1	3
0	22375	16.1	3
0	22376	16.1	3
0	22377	16.1	3
0	22378	16.1	3
0	22379	16.1	3
0	22425	16.15	3
0	22426	16.15	3
0	22427	16.15	3
0	22428	16.15	3
0	22461	16.2	3
0	22462	16.2	3
0	22463	16.2	3
0	22464	16.2	3
0	22465	16.2	3
0	22466	16.2	3
0	22467	16.2	3
0	22468	16.2	3
0	22509	16.25	3
0	22510	16.25	3
0	22511	16.25	3
0	22512	16.25	3
0	22545	16.3	3
0	22546	16.3	3
0	22547	16.3	3
0	22548	16.3	3
0	22549	16.3	3
0	22550	16.3	3
0	22551	16.3	3
0	22552	16.3	3
0	22593	16.35	3
0	22594	16.35	3
0	22595	16.35	3
0	22596	16.35	3
0	22629	16.4	3
0	22630	16.4	3
0	22631	16.4	3
0	22632	16.4	3
0	22633	16.4	3
0	22634	16.4	3
0	22635	16.4	3
0	22636	16.4	3
0	22677	16.45	3
0	22678	16.45	3
0	22679	16.45	3
0	22680	16.45	3
0	22713	16.5	3
0	22714	16.5	3
0	22715	16.5	3
0	22716	16.5	3
0	22717	16.5	3
0	22718	16.5	3
0	22719	16.5	3
0	22720	16.5	3
0	22967	16.55	3
0	22968	16.55	3
0	22969	16.55	3
0	22970	16.55	3
0	23136	16.6	3
0	23137	16.6	3
0	23138	16.6	3
0	23139	16.6	3
0	23140	16.6	3
0	23141	16.6	3
0	23142	16.6	3
0	23143	16.6	3
0	23184	16.65	3
0	23185	16.65	3
0	23186	16.65	3
0	23187	16.65	3
0	23220	16.7	3
0	23221	16.7	3
0	23222	16.7	3
0	23223	16.7	3
0	23224	16.7	3
0	23225	16.7	3
0	23226	16.7	3
0	23227	16.7	3
0	23268	16.75	3
0	23269	16.75	3
0	23270	16.75	3
0	23271	16.75	3
0	23304	16.8	3
0	23305	16.8	3
0	23306	16.8	3
0	23307	16.8	3
0	23308	16.8	3
0	23309	16.8	3
0	23310	16.8	3
0	23311	16.8	3
0	23352	16.85	3
0	23353	16.85	3
0	23354	16.85	3
0	23355	16.85	3
0	23388	16.9	3
0	23389	16.9	3
0	23390	16.9	3
0	23391	16.9	3
0	23392	16.9	3
0	23393	16.9	3
0	23394	16.9	3
0	23395	16.9	3
0	23436	16.95	3
0	23437	16.95	3
0	23438	16.95	3
0	23439	16.95	3
0	23474	17	3
0	23475	17	3
0	23476	17	3
0	23477	17	3
0	23478	17	3
0	23479	17	3
0	23480	17	3
0	23481	17	3
0	23522	17.05	3
0	23523	17.05	3
0	23524	17.05	3
0	23525	17.05	3
0	23766	17.1	3
0	23767	17.1	3
0	23768	17.1	3
0	23769	17.1	3
0	23770	17.1	3
0	23771	17.1	3
0	23772	17.1	3
0	23773	17.1	3
0	23933	17.15	3
0	23934	17.15	3
0	23935	17.15	3
0	23936	17.15	3
0	23969	17.2	3
0	23970	17.2	3
0	23971	17.2	3
0	23972	17.2	3
0	23973	17.2	3
0	23974	17.2	3
0	23975	17.2	3
0	23976	17.2	3
0	24017	17.25	3
0	24018	17.25	3
0	24019	17.25	3
0	24020	17.25	3
0	24053	17.3	3
0	24054	17.3	3
0	24055	17.3	3
0	24056	17.3	3
0	24057	17.3	3
0	24058	17.3	3
0	24059	17.3	3
0	24060	17.3	3
0	24101	17.35	3
0	24102	17.35	3
0	24103	17.35	3
0	24104	17.35	3
0	24137	17.4	3
0	24138	17.4	3
0	24139	17.4	3
0	24140	17.4	3
0	24141	17.4	3
0	24142	17.4	3
0	24143	17.4	3
0	24144	17.4	3
0	24185	17.45	3
0	24186	17.45	3
0	24187	17.45	3
0	24188	17.45	3
0	24221	17.5	3
0	24222	17.5	3
0	24223	17.5	3
0	24224	17.5	3
0	24225	17.5	3
0	24226	17.5	3
0	24227	17.5	3
0	24228	17.5	3
0	24269	17.55	3
0	24270	17.55	3
0	24271	17.55	3
0	24272	17.55	3
0	24305	17.6	3
0	24306	17.6	3
0	24307	17.6	3
0	24308	17.6	3
0	24309	17.6	3
0	24310	17.6	3
0	24311	17.6	3
0	24312	17.6	3
0	24559	17.65	3
0	24560	17.65	3
0	24561	17.65	3
0	24562	17.65	3
0	24686	17.7	3
0	24687	17.7	3
0	24688	17.7	3
0	24689	17.7	3
0	24690	17.7	3
0	24691	17.7	3
0	24692	17.7	3
0	24693	17.7	3
0	24734	17.75	3
0	24735	17.75	3
0	24736	17.75	3
0	24737	17.75	3
0	24770	17.8	3
0	24771	17.8	3
0	24772	17.8	3
0	24773	17.8	3
0	24774	17.8	3
0	24775	17.8	3
0	24776	17.8	3
0	24777	17.8	3
0	24818	17.85	3
0	24819	17.85	3
0	24820	17.85	3
0	24821	17.85	3
0	24854	17.9	3
0	24855	17.9	3
0	24856	17.9	3
0	24857	17.9	3
0	24858	17.9	3
0	24859	17.9	3
0	24860	17.9	3
0	24861	17.9	3
0	24902	17.95	3
0	24903	17.95	3
0	24904	17.95	3
0	24905	17.95	3
0	24940	18	3
0	24941	18	3
0	24942	18	3
0	24943	18	3
0	24944	18	3
0	24945	18	3
0	24946	18	3
0	24947	18	3
0	24988	18.05	3
0	24989	18.05	3
0	24990	18.05	3
0	24991	18.05	3
0	25028	18.1	3
0	25029	18.1	3
0	25030	18.1	3
0	25031	18.1	3
0	25032	18.1	3
0	25033	18.1	3
0	25034	18.1	3
0	25035	18.1	3
0	25081	18.15	3
0	25082	18.15	3
0	25083	18.15	3
0	25084	18.15	3
0	25323	18.2	3
0	25324	18.2	3
0	25325	18.2	3
0	25326	18.2	3
0	25327	18.2	3
0	25328	18.2	3
0	25329	18.2	3
0	25330	18.2	3
0	25504	18.25	3
0	25505	18.25	3
0	25506	18.25	3
0	25507	18.25	3
0	25540	18.3	3
0	25541	18.3	3
0	25542	18.3	3
0	25543	18.3	3
0	25544	18.3	3
0	25545	18.3	3
0	25546	18.3	3
0	25547	18.3	3
0	25588	18.35	3
0	25589	18.35	3
0	25590	18.35	3
0	25591	18.35	3
0	25624	18.4	3
0	25625	18.4	3
0	25626	18.4	3
0	25627	18.4	3
0	25628	18.4	3
0	25629	18.4	3
0	25630	18.4	3
0	25631	18.4	3
0	25672	18.45	3
0	25673	18.45	3
0	25674	18.45	3
0	25675	18.45	3
0	25708	18.5	3
0	25709	18.5	3
0	25710	18.5	3
0	25711	18.5	3
0	25712	18.5	3
0	25713	18.5	3
0	25714	18.5	3
0	25715	18.5	3
0	25756	18.55	3
0	25757	18.55	3
0	25758	18.55	3
0	25759	18.55	3
0	25792	18.6	3
0	25793	18.6	3
0	25794	18.6	3
0	25795	18.6	3
0	25796	18.6	3
0	25797	18.6	3
0	25798	18.6	3
0	25799	18.6	3
0	25840	18.65	3
0	25841	18.65	3
0	25842	18.65	3
0	25843	18.65	3
0	25876	18.7	3
0	25877	18.7	3
0	25878	18.7	3
0	25879	18.7	3
0	25880	18.7	3
0	25881	18.7	3
0	25882	18.7	3
0	25883	18.7	3
0	26128	18.75	3
0	26129	18.75	3
0	26130	18.75	3
0	26131	18.75	3
0	26236	18.8	3
0	26237	18.8	3
0	26238	18.8	3
0	26239	18.8	3
0	26240	18.8	3
0	26241	18.8	3
0	26242	18.8	3
0	26243	18.8	3
0	26284	18.85	3
0	26285	18.85	3
0	26286	18.85	3
0	26287	18.85	3
0	26320	18.9	3
0	26321	18.9	3
0	26322	18.9	3
0	26323	18.9	3
0	26324	18.9	3
0	26325	18.9	3
0	26326	18.9	3
0	26327	18.9	3
0	26368	18.95	3
0	26369	18.95	3
0	26370	18.95	3
0	26371	18.95	3
0	26406	19	3
0	26407	19	3
0	26408	19	3
0	26409	19	3
0	26410	19	3
0	26411	19	3
0	26412	19	3
0	26413	19	3
0	26454	19.05	3
0	26455	19.05	3
0	26456	19.05	3
0	26457	19.05	3
0	26494	19.1	3
0	26495	19.1	3
0	26496	19.1	3
0	26497	19.1	3
0	26498	19.1	3
0	26499	19.1	3
0	26500	19.1	3
0	26501	19.1	3
0	26547	19.15	3
0	26548	19.15	3
0	26549	19.15	3
0	26550	19.15	3
0	26583	19.2	3
0	26584	19.2	3
0	26585	19.2	3
0	26586	19.2	3
0	26587	19.2	3
0	26588	19.2	3
0	26589	19.2	3
0	26590	19.2	3
0	26631	19.25	3
0	26632	19.25	3
0	26633	19.25	3
0	26634	19.25	3
0	26873	19.3	3
0	26874	19.3	3
0	26875	19.3	3
0	26876	19.3	3
0	26877	19.3	3
0	26878	19.3	3
0	26879	19.3	3
0	26880	19.3	3
0	27054	19.35	3
0	27055	19.35	3
0	27056	19.35	3
0	27057	19.35	3
0	27090	19.4	3
0	27091	19.4	3
0	27092	19.4	3
0	27093	19.4	3
0	27094	19.4	3
0	27095	19.4	3
0	27096	19.4	3
0	27097	19.4	3
0	27138	19.45	3
0	27139	19.45	3
0	27140	19.45	3
0	27141	19.45	3
0	27174	19.5	3
0	27175	19.5	3
0	27176	19.5	3
0	27177	19.5	3
0	27178	19.5	3
0	27179	19.5	3
0	27180	19.5	3
0	27181	19.5	3
0	27222	19.55	3
0	27223	19.55	3
0	27224	19.55	3
0	27225	19.55	3
0	27258	19.6	3
0	27259	19.6	3
0	27260	19.6	3
0	27261	19.6	3
0	27262	19.6	3
0	27263	19.6	3
0	27264	19.6	3
0	27265	19.6	3
0	27306	19.65	3
0	27307	19.65	3
0	27308	19.65	3
0	27309	19.65	3
0	27342	19.7	3
0	27343	19.7	3
0	27344	19.7	3
0	27345	19.7	3
0	27346	19.7	3
0	27347	19.7	3
0	27348	19.7	3
0	27349	19.7	3
0	27390	19.75	3
0	27391	19.75	3
0	27392	19.75	3
0	27393	19.75	3
0	27426	19.8	3
0	27427	19.8	3
0	27428	19.8	3
0	27429	19.8	3
0	27430	19.8	3
0	27431	19.8	3
0	27432	19.8	3
0	27433	19.8	3
0	27678	19.85	3
0	27679	19.85	3
0	27680	19.85	3
0	27681	19.85	3
0	27786	19.9	3
0	27787	19.9	3
0	27788	19.9	3
0	27789	19.9	3
0	27790	19.9	3
0	27791	19.9	3
0	27792	19.9	3
0	27793	19.9	3
0	27834	19.95	3
0	27835	19.95	3
0	27836	19.95	3
0	27837	19.95	3
0	27872	20	3
0	27873	20	3
0	27874	20	3
0	27875	20	3
0	27876	20	3
0	27877	20	3
0	27878	20	3
0	27879	20	3
0	27920	20.05	3
0	27921	20.05	3
0	27922	20.05	3
0	27923	20.05	3
0	27960	20.1	3
0	27961	20.1	3
0	27962	20.1	3
0	27963	20.1	3
0	27964	20.1	3
0	27965	20.1	3
0	27966	20.1	3
0	27967	20.1	3
0	28013	20.15	3
0	28014	20.15	3
0	28015	20.15	3
0	28016	20.15	3
0	28049	20.2	3
0	28050	20.2	3
0	28051	20.2	3
0	28052	20.2	3
0	28053	20.2	3
0	28054	20.2	3
0	28055	20.2	3
0	28056	20.2	3
0	28097	20.25	3
0	28098	20.25	3
0	28099	20.25	3
0	28100	20.25	3
0	28133	20.3	3
0	28134	20.3	3
0	28135	20.3	3
0	28136	20.3	3
0	28137	20.3	3
0	28138	20.3	3
0	28139	20.3	3
0	28140	20.3	3
0	28181	20.35	3
0	28182	20.35	3
0	28183	20.35	3
0	28184	20.35	3
0	28423	20.4	3
0	28424	20.4	3
0	28425	20.4	3
0	28426	20.4	3
0	28427	20.4	3
0	28428	20.4	3
0	28429	20.4	3
0	28430	20.4	3
0	28604	20.45	3
0	28605	20.45	3
0	28606	20.45	3
0	28607	20.45	3
0	28640	20.5	3
0	28641	20.5	3
0	28642	20.5	3
0	28643	20.5	3
0	28644	20.5	3
0	28645	20.5	3
0	28646	20.5	3
0	28647	20.5	3
0	28688	20.55	3
0	28689	20.55	3
0	28690	20.55	3
0	28691	20.55	3
0	28724	20.6	3
0	28725	20.6	3
0	28726	20.6	3
0	28727	20.6	3
0	28728	20.6	3
0	28729	20.6	3
0	28730	20.6	3
0	28731	20.6	3
0	28772	20.65	3
0	28773	20.65	3
0	28774	20.65	3
0	28775	20.65	3
0	28808	20.7	3
0	28809	20.7	3
0	28810	20.7	3
0	28811	20.7	3
0	28812	20.7	3
0	28813	20.7	3
0	28814	20.7	3
0	28815	20.7	3
0	28856	20.75	3
0	28857	20.75	3
0	28858	20.75	3
0	28859	20.75	3
0	28892	20.8	3
0	28893	20.8	3
0	28894	20.8	3
0	28895	20.8	3
0	28896	20.8	3
0	28897	20.8	3
0	28898	20.8	3
0	28899	20.8	3
0	28940	20.85	3
0	28941	20.85	3
0	28942	20.85	3
0	28943	20.85	3
0	28976	20.9	3
0	28977	20.9	3
0	28978	20.9	3
0	28979	20.9	3
0	28980	20.9	3
0	28981	20.9	3
0	28982	20.9	3
0	28983	20.9	3
0	29228	20.95	3
0	29229	20.95	3
0	29230	20.95	3
0	29231	20.95	3
0	29338	21	3
0	29339	21	3
0	29340	21	3
0	29341	21	3
0	29342	21	3
0	29343	21	3
0	29344	21	3
0	29345	21	3
0	29386	21.05	3
0	29387	21.05	3
0	29388	21.05	3
0	29389	21.05	3
0	29426	21.1	3
0	29427	21.1	3
0	29428	21.1	3
0	29429	21.1	3
0	29430	21.1	3
0	29431	21.1	3
0	29432	21.1	3
0	29433	21.1	3
0	29479	21.15	3
0	29480	21.15	3
0	29481	21.15	3
0	29482	21.15	3
0	29515	21.2	3
0	29516	21.2	3
0	29517	21.2	3
0	29518	21.2	3
0	29519	21.2	3
0	29520	21.2	3
0	29521	21.2	3
0	29522	21.2	3
0	29563	21.25	3
0	29564	21.25	3
0	29565	21.25	3
0	29566	21.25	3
0	29599	21.3	3
0	29600	21.3	3
0	29601	21.3	3
0	29602	21.3	3
0	29603	21.3	3
0	29604	21.3	3
0	29605	21.3	3
0	29606	21.3	3
0	29647	21.35	3
0	29648	21.35	3
0	29649	21.35	3
0	29650	21.35	3
0	29683	21.4	3
0	29684	21.4	3
0	29685	21.4	3
0	29686	21.4	3
0	29687	21.4	3
0	29688	21.4	3
0	29689	21.4	3
0	29690	21.4	3
0	29731	21.45	3
0	29732	21.45	3
0	29733	21.45	3
0	29734	21.45	3
0	29973	21.5	3
0	29974	21.5	3
0	29975	21.5	3
0	29976	21.5	3
0	29977	21.5	3
0	29978	21.5	3
0	29979	21.5	3
0	29980	21.5	3
0	30154	21.55	3
0	30155	21.55	3
0	30156	21.55	3
0	30157	21.55	3
0	30190	21.6	3
0	30191	21.6	3
0	30192	21.6	3
0	30193	21.6	3
0	30194	21.6	3
0	30195	21.6	3
0	30196	21.6	3
0	30197	21.6	3
0	30238	21.65	3
0	30239	21.65	3
0	30240	21.65	3
0	30241	21.65	3
0	30274	21.7	3
0	30275	21.7	3
0	30276	21.7	3
0	30277	21.7	3
0	30278	21.7	3
0	30279	21.7	3
0	30280	21.7	3
0	30281	21.7	3
0	30322	21.75	3
0	30323	21.75	3
0	30324	21.75	3
0	30325	21.75	3
0	30358	21.8	3
0	30359	21.8	3
0	30360	21.8	3
0	30361	21.8	3
0	30362	21.8	3
0	30363	21.8	3
0	30364	21.8	3
0	30365	21.8	3
0	30406	21.85	3
0	30407	21.85	3
0	30408	21.85	3
0	30409	21.85	3
0	30442	21.9	3
0	30443	21.9	3
0	30444	21.9	3
0	30445	21.9	3
0	30446	21.9	3
0	30447	21.9	3
0	30448	21.9	3
0	30449	21.9	3
0	30490	21.95	3
0	30491	21.95	3
0	30492	21.95	3
0	30493	21.95	3
0	30528	22	3
0	30529	22	3
0	30530	22	3
0	30531	22	3
0	30532	22	3
0	30533	22	3
0	30534	22	3
0	30535	22	3
0	30780	22.05	3
0	30781	22.05	3
0	30782	22.05	3
0	30783	22.05	3
0	30892	22.1	3
0	30893	22.1	3
0	30894	22.1	3
0	30895	22.1	3
0	30896	22.1	3
0	30897	22.1	3
0	30898	22.1	3
0	30899	22.1	3
0	30945	22.15	3
0	30946	22.15	3
0	30947	22.15	3
0	30948	22.15	3
0	30981	22.2	3
0	30982	22.2	3
0	30983	22.2	3
0	30984	22.2	3
0	30985	22.2	3
0	30986	22.2	3
0	30987	22.2	3
0	30988	22.2	3
0	31029	22.25	3
0	31030	22.25	3
0	31031	22.25	3
0	31032	22.25	3
0	31065	22.3	3
0	31066	22.3	3
0	31067	22.3	3
0	31068	22.3	3
0	31069	22.3	3
0	31070	22.3	3
0	31071	22.3	3
0	31072	22.3	3
0	31113	22.35	3
0	31114	22.35	3
0	31115	22.35	3
0	31116	22.35	3
0	31149	22.4	3
0	31150	22.4	3
0	31151	22.4	3
0	31152	22.4	3
0	31153	22.4	3
0	31154	22.4	3
0	31155	22.4	3
0	31156	22.4	3
0	31197	22.45	3
0	31198	22.45	3
0	31199	22.45	3
0	31200	22.45	3
0	31233	22.5	3
0	31234	22.5	3
0	31235	22.5	3
0	31236	22.5	3
0	31237	22.5	3
0	31238	22.5	3
0	31239	22.5	3
0	31240	22.5	3
0	31281	22.55	3
0	31282	22.55	3
0	31283	22.55	3
0	31284	22.55	3
0	31523	22.6	3
0	31524	22.6	3
0	31525	22.6	3
0	31526	22.6	3
0	31527	22.6	3
0	31528	22.6	3
0	31529	22.6	3
0	31530	22.6	3
0	31704	22.65	3
0	31705	22.65	3
0	31706	22.65	3
0	31707	22.65	3
0	31740	22.7	3
0	31741	22.7	3
0	31742	22.7	3
0	31743	22.7	3
0	31744	22.7	3
0	31745	22.7	3
0	31746	22.7	3
0	31747	22.7	3
0	31788	22.75	3
0	31789	22.75	3
0	31790	22.75	3
0	31791	22.75	3
0	31824	22.8	3
0	31825	22.8	3
0	31826	22.8	3
0	31827	22.8	3
0	31828	22.8	3
0	31829	22.8	3
0	31830	22.8	3
0	31831	22.8	3
0	31872	22.85	3
0	31873	22.85	3
0	31874	22.85	3
0	31875	22.85	3
0	31908	22.9	3
0	31909	22.9	3
0	31910	22.9	3
0	31911	22.9	3
0	31912	22.9	3
0	31913	22.9	3
0	31914	22.9	3
0	31915	22.9	3
0	31956	22.95	3
0	31957	22.95	3
0	31958	22.95	3
0	31959	22.95	3
0	31994	23	3
0	31995	23	3
0	31996	23	3
0	31997	23	3
0	31998	23	3
0	31999	23	3
0	32000	23	3
0	32001	23	3
0	32042	23.05	3
0	32043	23.05	3
0	32044	23.05	3
0	32045	23.05	3
0	32082	23.1	3
0	32083	23.1	3
0	32084	23.1	3
0	32085	23.1	3
0	32086	23.1	3
0	32087	23.1	3
0	32088	23.1	3
0	32089	23.1	3
0	32341	23.15	3
0	32342	23.15	3
0	32343	23.15	3
0	32344	23.15	3
0	32510	23.2	3
0	32511	23.2	3
0	32512	23.2	3
0	32513	23.2	3
0	32514	23.2	3
0	32515	23.2	3
0	32516	23.2	3
0	32517	23.2	3
0	32558	23.25	3
0	32559	23.25	3
0	32560	23.25	3
0	32561	23.25	3
0	32594	23.3	3
0	32595	23.3	3
0	32596	23.3	3
0	32597	23.3	3
0	32598	23.3	3
0	32599	23.3	3
0	32600	23.3	3
0	32601	23.3	3
0	32642	23.35	3
0	32643	23.35	3
0	32644	23.35	3
0	32645	23.35	3
0	32678	23.4	3
0	32679	23.4	3
0	32680	23.4	3
0	32681	23.4	3
0	32682	23.4	3
0	32683	23.4	3
0	32684	23.4	3
0	32685	23.4	3
0	32726	23.45	3
0	32727	23.45	3
0	32728	23.45	3
0	32729	23.45	3
0	32762	23.5	3
0	32763	23.5	3
0	32764	23.5	3
0	32765	23.5	3
0	32766	23.5	3
0	32767	23.5	3
0	32768	23.5	3
0	32769	23.5	3
0	32810	23.55	3
0	32811	23.55	3
0	32812	23.55	3
0	32813	23.55	3
0	32846	23.6	3
0	32847	23.6	3
0	32848	23.6	3
0	32849	23.6	3
0	32850	23.6	3
0	32851	23.6	3
0	32852	23.6	3
0	32853	23.6	3
0	32894	23.65	3
0	32895	23.65	3
0	32896	23.65	3
0	32897	23.65	3
0	33134	23.7	3
0	33135	23.7	3
0	33136	23.7	3
0	33137	23.7	3
0	33138	23.7	3
0	33139	23.7	3
0	33140	23.7	3
0	33141	23.7	3
0	33254	23.75	3
0	33255	23.75	3
0	33256	23.75	3
0	33257	23.75	3
0	33290	23.8	3
0	33291	23.8	3
0	33292	23.8	3
0	33293	23.8	3
0	33294	23.8	3
0	33295	23.8	3
0	33296	23.8	3
0	33297	23.8	3
0	33338	23.85	3
0	33339	23.85	3
0	33340	23.85	3
0	33341	23.85	3
0	33374	23.9	3
0	33375	23.9	3
0	33376	23.9	3
0	33377	23.9	3
0	33378	23.9	3
0	33379	23.9	3
0	33380	23.9	3
0	33381	23.9	3
0	33422	23.95	3
0	33423	23.95	3
0	33424	23.95	3
0	33425	23.95	3
0	33460	24	3
0	33461	24	3
0	33462	24	3
0	33463	24	3
0	33464	24	3
0	33465	24	3
0	33466	24	3
0	33467	24	3
0	33508	24.05	3
0	33509	24.05	3
0	33510	24.05	3
0	33511	24.05	3
0	33548	24.1	3
0	33549	24.1	3
0	33550	24.1	3
0	33551	24.1	3
0	33552	24.1	3
0	33553	24.1	3
0	33554	24.1	3
0	33555	24.1	3
0	33601	24.15	3
0	33602	24.15	3
0	33603	24.15	3
0	33604	24.15	3
0	33637	24.2	3
0	33638	24.2	3
0	33639	24.2	3
0	33640	24.2	3
0	33641	24.2	3
0	33642	24.2	3
0	33643	24.2	3
0	33644	24.2	3
0	33891	24.25	3
0	33892	24.25	3
0	33893	24.25	3
0	33894	24.25	3
0	34060	24.3	3
0	34061	24.3	3
0	34062	24.3	3
0	34063	24.3	3
0	34064	24.3	3
0	34065	24.3	3
0	34066	24.3	3
0	34067	24.3	3
0	34108	24.35	3
0	34109	24.35	3
0	34110	24.35	3
0	34111	24.35	3
0	34144	24.4	3
0	34145	24.4	3
0	34146	24.4	3
0	34147	24.4	3
0	34148	24.4	3
0	34149	24.4	3
0	34150	24.4	3
0	34151	24.4	3
0	34192	24.45	3
0	34193	24.45	3
0	34194	24.45	3
0	34195	24.45	3
0	34228	24.5	3
0	34229	24.5	3
0	34230	24.5	3
0	34231	24.5	3
0	34232	24.5	3
0	34233	24.5	3
0	34234	24.5	3
0	34235	24.5	3
0	34276	24.55	3
0	34277	24.55	3
0	34278	24.55	3
0	34279	24.55	3
0	34312	24.6	3
0	34313	24.6	3
0	34314	24.6	3
0	34315	24.6	3
0	34316	24.6	3
0	34317	24.6	3
0	34318	24.6	3
0	34319	24.6	3
0	34360	24.65	3
0	34361	24.65	3
0	34362	24.65	3
0	34363	24.65	3
0	34396	24.7	3
0	34397	24.7	3
0	34398	24.7	3
0	34399	24.7	3
0	34400	24.7	3
0	34401	24.7	3
0	34402	24.7	3
0	34403	24.7	3
0	34444	24.75	3
0	34445	24.75	3
0	34446	24.75	3
0	34447	24.75	3
0	34684	24.8	3
0	34685	24.8	3
0	34686	24.8	3
0	34687	24.8	3
0	34688	24.8	3
0	34689	24.8	3
0	34690	24.8	3
0	34691	24.8	3
0	34804	24.85	3
0	34805	24.85	3
0	34806	24.85	3
0	34807	24.85	3
0	34840	24.9	3
0	34841	24.9	3
0	34842	24.9	3
0	34843	24.9	3
0	34844	24.9	3
0	34845	24.9	3
0	34846	24.9	3
0	34847	24.9	3
0	34888	24.95	3
0	34889	24.95	3
0	34890	24.95	3
0	34891	24.95	3
0	34926	25	3
0	34927	25	3
0	34928	25	3
0	34929	25	3
0	34930	25	3
0	34931	25	3
0	34932	25	3
0	34933	25	3
0	34974	25.05	3
0	34975	25.05	3
0	34976	25.05	3
0	34977	25.05	3
0	35014	25.1	3
0	35015	25.1	3
0	35016	25.1	3
0	35017	25.1	3
0	35018	25.1	3
0	35019	25.1	3
0	35020	25.1	3
0	35021	25.1	3
0	35067	25.15	3
0	35068	25.15	3
0	35069	25.15	3
0	35070	25.15	3
0	35103	25.2	3
0	35104	25.2	3
0	35105	25.2	3
0	35106	25.2	3
0	35107	25.2	3
0	35108	25.2	3
0	35109	25.2	3
0	35110	25.2	3
0	35151	25.25	3
0	35152	25.25	3
0	35153	25.25	3
0	35154	25.25	3
0	35187	25.3	3
0	35188	25.3	3
0	35189	25.3	3
0	35190	25.3	3
0	35191	25.3	3
0	35192	25.3	3
0	35193	25.3	3
0	35194	25.3	3
0	35441	25.35	3
0	35442	25.35	3
0	35443	25.35	3
0	35444	25.35	3
0	35610	25.4	3
0	35611	25.4	3
0	35612	25.4	3
0	35613	25.4	3
0	35614	25.4	3
0	35615	25.4	3
0	35616	25.4	3
0	35617	25.4	3
0	35658	25.45	3
0	35659	25.45	3
0	35660	25.45	3
0	35661	25.45	3
0	35694	25.5	3
0	35695	25.5	3
0	35696	25.5	3
0	35697	25.5	3
0	35698	25.5	3
0	35699	25.5	3
0	35700	25.5	3
0	35701	25.5	3
0	35742	25.55	3
0	35743	25.55	3
0	35744	25.55	3
0	35745	25.55	3
0	35778	25.6	3
0	35779	25.6	3
0	35780	25.6	3
0	35781	25.6	3
0	35782	25.6	3
0	35783	25.6	3
0	35784	25.6	3
0	35785	25.6	3
0	35826	25.65	3
0	35827	25.65	3
0	35828	25.65	3
0	35829	25.65	3
0	35862	25.7	3
0	35863	25.7	3
0	35864	25.7	3
0	35865	25.7	3
0	35866	25.7	3
0	35867	25.7	3
0	35868	25.7	3
0	35869	25.7	3
0	35910	25.75	3
0	35911	25.75	3
0	35912	25.75	3
0	35913	25.75	3
0	35946	25.8	3
0	35947	25.8	3
0	35948	25.8	3
0	35949	25.8	3
0	35950	25.8	3
0	35951	25.8	3
0	35952	25.8	3
0	35953	25.8	3
0	35994	25.85	3
0	35995	25.85	3
0	35996	25.85	3
0	35997	25.85	3
0	36234	25.9	3
0	36235	25.9	3
0	36236	25.9	3
0	36237	25.9	3
0	36238	25.9	3
0	36239	25.9	3
0	36240	25.9	3
0	36241	25.9	3
0	36354	25.95	3
0	36355	25.95	3
0	36356	25.95	3
0	36357	25.95	3
0	36392	26	3
0	36393	26	3
0	36394	26	3
0	36395	26	3
0	36396	26	3
0	36397	26	3
0	36398	26	3
0	36399	26	3
0	36440	26.05	3
0	36441	26.05	3
0	36442	26.05	3
0	36443	26.05	3
0	36480	26.1	3
0	36481	26.1	3
0	36482	26.1	3
0	36483	26.1	3
0	36484	26.1	3
0	36485	26.1	3
0	36486	26.1	3
0	36487	26.1	3
0	36533	26.15	3
0	36534	26.15	3
0	36535	26.15	3
0	36536	26.15	3
0	36569	26.2	3
0	36570	26.2	3
0	36571	26.2	3
0	36572	26.2	3
0	36573	26.2	3
0	36574	26.2	3
0	36575	26.2	3
0	36576	26.2	3
0	36617	26.25	3
0	36618	26.25	3
0	36619	26.25	3
0	36620	26.25	3
0	36653	26.3	3
0	36654	26.3	3
0	36655	26.3	3
0	36656	26.3	3
0	36657	26.3	3
0	36658	26.3	3
0	36659	26.3	3
0	36660	26.3	3
0	36701	26.35	3
0	36702	26.35	3
0	36703	26.35	3
0	36704	26.35	3
0	36737	26.4	3
0	36738	26.4	3
0	36739	26.4	3
0	36740	26.4	3
0	36741	26.4	3
0	36742	26.4	3
0	36743	26.4	3
0	36744	26.4	3
0	36991	26.45	3
0	36992	26.45	3
0	36993	26.45	3
0	36994	26.45	3
0	37160	26.5	3
0	37161	26.5	3
0	37162	26.5	3
0	37163	26.5	3
0	37164	26.5	3
0	37165	26.5	3
0	37166	26.5	3
0	37167	26.5	3
0	37208	26.55	3
0	37209	26.55	3
0	37210	26.55	3
0	37211	26.55	3
0	37244	26.6	3
0	37245	26.6	3
0	37246	26.6	3
0	37247	26.6	3
0	37248	26.6	3
0	37249	26.6	3
0	37250	26.6	3
0	37251	26.6	3
0	37292	26.65	3
0	37293	26.65	3
0	37294	26.65	3
0	37295	26.65	3
0	37328	26.7	3
0	37329	26.7	3
0	37330	26.7	3
0	37331	26.7	3
0	37332	26.7	3
0	37333	26.7	3
0	37334	26.7	3
0	37335	26.7	3
0	37376	26.75	3
0	37377	26.75	3
0	37378	26.75	3
0	37379	26.75	3
0	37412	26.8	3
0	37413	26.8	3
0	37414	26.8	3
0	37415	26.8	3
0	37416	26.8	3
0	37417	26.8	3
0	37418	26.8	3
0	37419	26.8	3
0	37460	26.85	3
0	37461	26.85	3
0	37462	26.85	3
0	37463	26.85	3
0	37496	26.9	3
0	37497	26.9	3
0	37498	26.9	3
0	37499	26.9	3
0	37500	26.9	3
0	37501	26.9	3
0	37502	26.9	3
0	37503	26.9	3
0	37544	26.95	3
0	37545	26.95	3
0	37546	26.95	3
0	37547	26.95	3
0	37786	27	3
0	37787	27	3
0	37788	27	3
0	37789	27	3
0	37790	27	3
0	37791	27	3
0	37792	27	3
0	37793	27	3
0	37906	27.05	3
0	37907	27.05	3
0	37908	27.05	3
0	37909	27.05	3
0	37946	27.1	3
0	37947	27.1	3
0	37948	27.1	3
0	37949	27.1	3
0	37950	27.1	3
0	37951	27.1	3
0	37952	27.1	3
0	37953	27.1	3
0	37999	27.15	3
0	38000	27.15	3
0	38001	27.15	3
0	38002	27.15	3
0	38035	27.2	3
0	38036	27.2	3
0	38037	27.2	3
0	38038	27.2	3
0	38039	27.2	3
0	38040	27.2	3
0	38041	27.2	3
0	38042	27.2	3
0	38083	27.25	3
0	38084	27.25	3
0	38085	27.25	3
0	38086	27.25	3
0	38119	27.3	3
0	38120	27.3	3
0	38121	27.3	3
0	38122	27.3	3
0	38123	27.3	3
0	38124	27.3	3
0	38125	27.3	3
0	38126	27.3	3
0	38167	27.35	3
0	38168	27.35	3
0	38169	27.35	3
0	38170	27.35	3
0	38203	27.4	3
0	38204	27.4	3
0	38205	27.4	3
0	38206	27.4	3
0	38207	27.4	3
0	38208	27.4	3
0	38209	27.4	3
0	38210	27.4	3
0	38251	27.45	3
0	38252	27.45	3
0	38253	27.45	3
0	38254	27.45	3
0	38287	27.5	3
0	38288	27.5	3
0	38289	27.5	3
0	38290	27.5	3
0	38291	27.5	3
0	38292	27.5	3
0	38293	27.5	3
0	38294	27.5	3
0	38541	27.55	3
0	38542	27.55	3
0	38543	27.55	3
0	38544	27.55	3
0	38710	27.6	3
0	38711	27.6	3
0	38712	27.6	3
0	38713	27.6	3
0	38714	27.6	3
0	38715	27.6	3
0	38716	27.6	3
0	38717	27.6	3
0	38758	27.65	3
0	38759	27.65	3
0	38760	27.65	3
0	38761	27.65	3
0	38794	27.7	3
0	38795	27.7	3
0	38796	27.7	3
0	38797	27.7	3
0	38798	27.7	3
0	38799	27.7	3
0	38800	27.7	3
0	38801	27.7	3
0	38842	27.75	3
0	38843	27.75	3
0	38844	27.75	3
0	38845	27.75	3
0	38878	27.8	3
0	38879	27.8	3
0	38880	27.8	3
0	38881	27.8	3
0	38882	27.8	3
0	38883	27.8	3
0	38884	27.8	3
0	38885	27.8	3
0	38926	27.85	3
0	38927	27.85	3
0	38928	27.85	3
0	38929	27.85	3
0	38962	27.9	3
0	38963	27.9	3
0	38964	27.9	3
0	38965	27.9	3
0	38966	27.9	3
0	38967	27.9	3
0	38968	27.9	3
0	38969	27.9	3
0	39010	27.95	3
0	39011	27.95	3
0	39012	27.95	3
0	39013	27.95	3
0	39048	28	3
0	39049	28	3
0	39050	28	3
0	39051	28	3
0	39052	28	3
0	39053	28	3
0	39054	28	3
0	39055	28	3
0	39096	28.05	3
0	39097	28.05	3
0	39098	28.05	3
0	39099	28.05	3
0	39340	28.1	3
0	39341	28.1	3
0	39342	28.1	3
0	39343	28.1	3
0	39344	28.1	3
0	39345	28.1	3
0	39346	28.1	3
0	39347	28.1	3
0	39507	28.15	3
0	39508	28.15	3
0	39509	28.15	3
0	39510	28.15	3
0	39543	28.2	3
0	39544	28.2	3
0	39545	28.2	3
0	39546	28.2	3
0	39547	28.2	3
0	39548	28.2	3
0	39549	28.2	3
0	39550	28.2	3
0	39591	28.25	3
0	39592	28.25	3
0	39593	28.25	3
0	39594	28.25	3
0	39627	28.3	3
0	39628	28.3	3
0	39629	28.3	3
0	39630	28.3	3
0	39631	28.3	3
0	39632	28.3	3
0	39633	28.3	3
0	39634	28.3	3
0	39675	28.35	3
0	39676	28.35	3
0	39677	28.35	3
0	39678	28.35	3
0	39711	28.4	3
0	39712	28.4	3
0	39713	28.4	3
0	39714	28.4	3
0	39715	28.4	3
0	39716	28.4	3
0	39717	28.4	3
0	39718	28.4	3
0	39759	28.45	3
0	39760	28.45	3
0	39761	28.45	3
0	39762	28.45	3
0	39795	28.5	3
0	39796	28.5	3
0	39797	28.5	3
0	39798	28.5	3
0	39799	28.5	3
0	39800	28.5	3
0	39801	28.5	3
0	39802	28.5	3
0	39843	28.55	3
0	39844	28.55	3
0	39845	28.55	3
0	39846	28.55	3
0	39879	28.6	3
0	39880	28.6	3
0	39881	28.6	3
0	39882	28.6	3
0	39883	28.6	3
0	39884	28.6	3
0	39885	28.6	3
0	39886	28.6	3
0	40133	28.65	3
0	40134	28.65	3
0	40135	28.65	3
0	40136	28.65	3
0	40260	28.7	3
0	40261	28.7	3
0	40262	28.7	3
0	40263	28.7	3
0	40264	28.7	3
0	40265	28.7	3
0	40266	28.7	3
0	40267	28.7	3
0	40308	28.75	3
0	40309	28.75	3
0	40310	28.75	3
0	40311	28.75	3
0	40344	28.8	3
0	40345	28.8	3
0	40346	28.8	3
0	40347	28.8	3
0	40348	28.8	3
0	40349	28.8	3
0	40350	28.8	3
0	40351	28.8	3
0	40392	28.85	3
0	40393	28.85	3
0	40394	28.85	3
0	40395	28.85	3
0	40428	28.9	3
0	40429	28.9	3
0	40430	28.9	3
0	40431	28.9	3
0	40432	28.9	3
0	40433	28.9	3
0	40434	28.9	3
0	40435	28.9	3
0	40476	28.95	3
0	40477	28.95	3
0	40478	28.95	3
0	40479	28.95	3
0	40514	29	3
0	40515	29	3
0	40516	29	3
0	40517	29	3
0	40518	29	3
0	40519	29	3
0	40520	29	3
0	40521	29	3
0	40562	29.05	3
0	40563	29.05	3
0	40564	29.05	3
0	40565	29.05	3
0	40602	29.1	3
0	40603	29.1	3
0	40604	29.1	3
0	40605	29.1	3
0	40606	29.1	3
0	40607	29.1	3
0	40608	29.1	3
0	40609	29.1	3
0	40655	29.15	3
0	40656	29.15	3
0	40657	29.15	3
0	40658	29.15	3
0	40897	29.2	3
0	40898	29.2	3
0	40899	29.2	3
0	40900	29.2	3
0	40901	29.2	3
0	40902	29.2	3
0	40903	29.2	3
0	40904	29.2	3
0	41078	29.25	3
0	41079	29.25	3
0	41080	29.25	3
0	41081	29.25	3
0	41114	29.3	3
0	41115	29.3	3
0	41116	29.3	3
0	41117	29.3	3
0	41118	29.3	3
0	41119	29.3	3
0	41120	29.3	3
0	41121	29.3	3
0	41162	29.35	3
0	41163	29.35	3
0	41164	29.35	3
0	41165	29.35	3
0	41198	29.4	3
0	41199	29.4	3
0	41200	29.4	3
0	41201	29.4	3
0	41202	29.4	3
0	41203	29.4	3
0	41204	29.4	3
0	41205	29.4	3
0	41246	29.45	3
0	41247	29.45	3
0	41248	29.45	3
0	41249	29.45	3
0	41282	29.5	3
0	41283	29.5	3
0	41284	29.5	3
0	41285	29.5	3
0	41286	29.5	3
0	41287	29.5	3
0	41288	29.5	3
0	41289	29.5	3
0	41330	29.55	3
0	41331	29.55	3
0	41332	29.55	3
0	41333	29.55	3
0	41366	29.6	3
0	41367	29.6	3
0	41368	29.6	3
0	41369	29.6	3
0	41370	29.6	3
0	41371	29.6	3
0	41372	29.6	3
0	41373	29.6	3
0	41414	29.65	3
0	41415	29.65	3
0	41416	29.65	3
0	41417	29.65	3
0	41450	29.7	3
0	41451	29.7	3
0	41452	29.7	3
0	41453	29.7	3
0	41454	29.7	3
0	41455	29.7	3
0	41456	29.7	3
0	41457	29.7	3
0	41702	29.75	3
0	41703	29.75	3
0	41704	29.75	3
0	41705	29.75	3
0	41810	29.8	3
0	41811	29.8	3
0	41812	29.8	3
0	41813	29.8	3
0	41814	29.8	3
0	41815	29.8	3
0	41816	29.8	3
0	41817	29.8	3
0	41858	29.85	3
0	41859	29.85	3
0	41860	29.85	3
0	41861	29.85	3
0	41894	29.9	3
0	41895	29.9	3
0	41896	29.9	3
0	41897	29.9	3
0	41898	29.9	3
0	41899	29.9	3
0	41900	29.9	3
0	41901	29.9	3
0	41942	29.95	3
0	41943	29.95	3
0	41944	29.95	3
0	41945	29.95	3
0	41980	30	3
0	41981	30	3
0	41982	30	3
0	41983	30	3
0	41984	30	3
0	41985	30	3
0	41986	30	3
0	41987	30	3
0	42028	30.05	3
0	42029	30.05	3
0	42030	30.05	3
0	42031	30.05	3
0	42068	30.1	3
0	42069	30.1	3
0	42070	30.1	3
0	42071	30.1	3
0	42072	30.1	3
0	42073	30.1	3
0	42074	30.1	3
0	42075	30.1	3
0	42121	30.15	3
0	42122	30.15	3
0	42123	30.15	3
0	42124	30.15	3
0	42157	30.2	3
0	42158	30.2	3
0	42159	30.2	3
0	42160	30.2	3
0	42161	30.2	3
0	42162	30.2	3
0	42163	30.2	3
0	42164	30.2	3
0	42205	30.25	3
0	42206	30.25	3
0	42207	30.25	3
0	42208	30.25	3
0	42447	30.3	3
0	42448	30.3	3
0	42449	30.3	3
0	42450	30.3	3
0	42451	30.3	3
0	42452	30.3	3
0	42453	30.3	3
0	42454	30.3	3
0	42628	30.35	3
0	42629	30.35	3
0	42630	30.35	3
0	42631	30.35	3
0	42664	30.4	3
0	42665	30.4	3
0	42666	30.4	3
0	42667	30.4	3
0	42668	30.4	3
0	42669	30.4	3
0	42670	30.4	3
0	42671	30.4	3
0	42712	30.45	3
0	42713	30.45	3
0	42714	30.45	3
0	42715	30.45	3
0	42748	30.5	3
0	42749	30.5	3
0	42750	30.5	3
0	42751	30.5	3
0	42752	30.5	3
0	42753	30.5	3
0	42754	30.5	3
0	42755	30.5	3
0	42796	30.55	3
0	42797	30.55	3
0	42798	30.55	3
0	42799	30.55	3
0	42832	30.6	3
0	42833	30.6	3
0	42834	30.6	3
0	42835	30.6	3
0	42836	30.6	3
0	42837	30.6	3
0	42838	30.6	3
0	42839	30.6	3
0	42880	30.65	3
0	42881	30.65	3
0	42882	30.65	3
0	42883	30.65	3
0	42916	30.7	3
0	42917	30.7	3
0	42918	30.7	3
0	42919	30.7	3
0	42920	30.7	3
0	42921	30.7	3
0	42922	30.7	3
0	42923	30.7	3
0	42964	30.75	3
0	42965	30.75	3
0	42966	30.75	3
0	42967	30.75	3
0	43000	30.8	3
0	43001	30.8	3
0	43002	30.8	3
0	43003	30.8	3
0	43004	30.8	3
0	43005	30.8	3
0	43006	30.8	3
0	43007	30.8	3
0	43252	30.85	3
0	43253	30.85	3
0	43254	30.85	3
0	43255	30.85	3
0	43360	30.9	3
0	43361	30.9	3
0	43362	30.9	3
0	43363	30.9	3
0	43364	30.9	3
0	43365	30.9	3
0	43366	30.9	3
0	43367	30.9	3
0	43408	30.95	3
0	43409	30.95	3
0	43410	30.95	3
0	43411	30.95	3
0	43446	31	3
0	43447	31	3
0	43448	31	3
0	43449	31	3
0	43450	31	3
0	43451	31	3
0	43452	31	3
0	43453	31	3
0	43494	31.05	3
0	43495	31.05	3
0	43496	31.05	3
0	43497	31.05	3
0	43534	31.1	3
0	43535	31.1	3
0	43536	31.1	3
0	43537	31.1	3
0	43538	31.1	3
0	43539	31.1	3
0	43540	31.1	3
0	43541	31.1	3
0	43587	31.15	3
0	43588	31.15	3
0	43589	31.15	3
0	43590	31.15	3
0	43623	31.2	3
0	43624	31.2	3
0	43625	31.2	3
0	43626	31.2	3
0	43627	31.2	3
0	43628	31.2	3
0	43629	31.2	3
0	43630	31.2	3
0	43671	31.25	3
0	43672	31.25	3
0	43673	31.25	3
0	43674	31.25	3
0	43707	31.3	3
0	43708	31.3	3
0	43709	31.3	3
0	43710	31.3	3
0	43711	31.3	3
0	43712	31.3	3
0	43713	31.3	3
0	43714	31.3	3
0	43755	31.35	3
0	43756	31.35	3
0	43757	31.35	3
0	43758	31.35	3
0	43997	31.4	3
0	43998	31.4	3
0	43999	31.4	3
0	44000	31.4	3
0	44001	31.4	3
0	44002	31.4	3
0	44003	31.4	3
0	44004	31.4	3
0	44178	31.45	3
0	44179	31.45	3
0	44180	31.45	3
0	44181	31.45	3
0	44214	31.5	3
0	44215	31.5	3
0	44216	31.5	3
0	44217	31.5	3
0	44218	31.5	3
0	44219	31.5	3
0	44220	31.5	3
0	44221	31.5	3
0	44262	31.55	3
0	44263	31.55	3
0	44264	31.55	3
0	44265	31.55	3
0	44298	31.6	3
0	44299	31.6	3
0	44300	31.6	3
0	44301	31.6	3
0	44302	31.6	3
0	44303	31.6	3
0	44304	31.6	3
0	44305	31.6	3
0	44346	31.65	3
0	44347	31.65	3
0	44348	31.65	3
0	44349	31.65	3
0	44382	31.7	3
0	44383	31.7	3
0	44384	31.7	3
0	44385	31.7	3
0	44386	31.7	3
0	44387	31.7	3
0	44388	31.7	3
0	44389	31.7	3
0	44430	31.75	3
0	44431	31.75	3
0	44432	31.75	3
0	44433	31.75	3
0	44466	31.8	3
0	44467	31.8	3
0	44468	31.8	3
0	44469	31.8	3
0	44470	31.8	3
0	44471	31.8	3
0	44472	31.8	3
0	44473	31.8	3
0	44514	31.85	3
0	44515	31.85	3
0	44516	31.85	3
0	44517	31.85	3
0	44550	31.9	3
0	44551	31.9	3
0	44552	31.9	3
0	44553	31.9	3
0	44554	31.9	3
0	44555	31.9	3
0	44556	31.9	3
0	44557	31.9	3
0	44802	31.95	3
0	44803	31.95	3
0	44804	31.95	3
0	44805	31.95	3
0	44912	32	3
0	44913	32	3
0	44914	32	3
0	44915	32	3
0	44916	32	3
0	44917	32	3
0	44918	32	3
0	44919	32	3
0	44960	32.05	3
0	44961	32.05	3
0	44962	32.05	3
0	44963	32.05	3
0	45000	32.1	3
0	45001	32.1	3
0	45002	32.1	3
0	45003	32.1	3
0	45004	32.1	3
0	45005	32.1	3
0	45006	32.1	3
0	45007	32.1	3
0	45053	32.15	3
0	45054	32.15	3
0	45055	32.15	3
0	45056	32.15	3
0	45089	32.2	3
0	45090	32.2	3
0	45091	32.2	3
0	45092	32.2	3
0	45093	32.2	3
0	45094	32.2	3
0	45095	32.2	3
0	45096	32.2	3
0	45137	32.25	3
0	45138	32.25	3
0	45139	32.25	3
0	45140	32.25	3
0	45173	32.3	3
0	45174	32.3	3
0	45175	32.3	3
0	45176	32.3	3
0	45177	32.3	3
0	45178	32.3	3
0	45179	32.3	3
0	45180	32.3	3
0	45221	32.35	3
0	45222	32.35	3
0	45223	32.35	3
0	45224	32.35	3
0	45257	32.4	3
0	45258	32.4	3
0	45259	32.4	3
0	45260	32.4	3
0	45261	32.4	3
0	45262	32.4	3
0	45263	32.4	3
0	45264	32.4	3
0	45305	32.45	3
0	45306	32.45	3
0	45307	32.45	3
0	45308	32.45	3
0	45547	32.5	3
0	45548	32.5	3
0	45549	32.5	3
0	45550	32.5	3
0	45551	32.5	3
0	45552	32.5	3
0	45553	32.5	3
0	45554	32.5	3
0	45728	32.55	3
0	45729	32.55	3
0	45730	32.55	3
0	45731	32.55	3
0	45764	32.6	3
0	45765	32.6	3
0	45766	32.6	3
0	45767	32.6	3
0	45768	32.6	3
0	45769	32.6	3
0	45770	32.6	3
0	45771	32.6	3
0	45812	32.65	3
0	45813	32.65	3
0	45814	32.65	3
0	45815	32.65	3
0	45848	32.7	3
0	45849	32.7	3
0	45850	32.7	3
0	45851	32.7	3
0	45852	32.7	3
0	45853	32.7	3
0	45854	32.7	3
0	45855	32.7	3
0	45896	32.75	3
0	45897	32.75	3
0	45898	32.75	3
0	45899	32.75	3
0	45932	32.8	3
0	45933	32.8	3
0	45934	32.8	3
0	45935	32.8	3
0	45936	32.8	3
0	45937	32.8	3
0	45938	32.8	3
0	45939	32.8	3
0	45980	32.85	3
0	45981	32.85	3
0	45982	32.85	3
0	45983	32.85	3
0	46016	32.9	3
0	46017	32.9	3
0	46018	32.9	3
0	46019	32.9	3
0	46020	32.9	3
0	46021	32.9	3
0	46022	32.9	3
0	46023	32.9	3
0	46064	32.95	3
0	46065	32.95	3
0	46066	32.95	3
0	46067	32.95	3
0	46102	33	3
0	46103	33	3
0	46104	33	3
0	46105	33	3
0	46106	33	3
0	46107	33	3
0	46108	33	3
0	46109	33	3
0	46354	33.05	3
0	46355	33.05	3
0	46356	33.05	3
0	46357	33.05	3
0	46466	33.1	3
0	46467	33.1	3
0	46468	33.1	3
0	46469	33.1	3
0	46470	33.1	3
0	46471	33.1	3
0	46472	33.1	3
0	46473	33.1	3
0	46519	33.15	3
0	46520	33.15	3
0	46521	33.15	3
0	46522	33.15	3
0	46555	33.2	3
0	46556	33.2	3
0	46557	33.2	3
0	46558	33.2	3
0	46559	33.2	3
0	46560	33.2	3
0	46561	33.2	3
0	46562	33.2	3
0	46603	33.25	3
0	46604	33.25	3
0	46605	33.25	3
0	46606	33.25	3
0	46639	33.3	3
0	46640	33.3	3
0	46641	33.3	3
0	46642	33.3	3
0	46643	33.3	3
0	46644	33.3	3
0	46645	33.3	3
0	46646	33.3	3
0	46687	33.35	3
0	46688	33.35	3
0	46689	33.35	3
0	46690	33.35	3
0	46723	33.4	3
0	46724	33.4	3
0	46725	33.4	3
0	46726	33.4	3
0	46727	33.4	3
0	46728	33.4	3
0	46729	33.4	3
0	46730	33.4	3
0	46771	33.45	3
0	46772	33.45	3
0	46773	33.45	3
0	46774	33.45	3
0	46807	33.5	3
0	46808	33.5	3
0	46809	33.5	3
0	46810	33.5	3
0	46811	33.5	3
0	46812	33.5	3
0	46813	33.5	3
0	46814	33.5	3
0	46855	33.55	3
0	46856	33.55	3
0	46857	33.55	3
0	46858	33.55	3
0	47097	33.6	3
0	47098	33.6	3
0	47099	33.6	3
0	47100	33.6	3
0	47101	33.6	3
0	47102	33.6	3
0	47103	33.6	3
0	47104	33.6	3
0	47278	33.65	3
0	47279	33.65	3
0	47280	33.65	3
0	47281	33.65	3
0	47314	33.7	3
0	47315	33.7	3
0	47316	33.7	3
0	47317	33.7	3
0	47318	33.7	3
0	47319	33.7	3
0	47320	33.7	3
0	47321	33.7	3
0	47362	33.75	3
0	47363	33.75	3
0	47364	33.75	3
0	47365	33.75	3
0	47398	33.8	3
0	47399	33.8	3
0	47400	33.8	3
0	47401	33.8	3
0	47402	33.8	3
0	47403	33.8	3
0	47404	33.8	3
0	47405	33.8	3
0	47446	33.85	3
0	47447	33.85	3
0	47448	33.85	3
0	47449	33.85	3
0	47482	33.9	3
0	47483	33.9	3
0	47484	33.9	3
0	47485	33.9	3
0	47486	33.9	3
0	47487	33.9	3
0	47488	33.9	3
0	47489	33.9	3
0	47530	33.95	3
0	47531	33.95	3
0	47532	33.95	3
0	47533	33.95	3
0	47568	34	3
0	47569	34	3
0	47570	34	3
0	47571	34	3
0	47572	34	3
0	47573	34	3
0	47574	34	3
0	47575	34	3
0	47616	34.05	3
0	47617	34.05	3
0	47618	34.05	3
0	47619	34.05	3
0	47656	34.1	3
0	47657	34.1	3
0	47658	34.1	3
0	47659	34.1	3
0	47660	34.1	3
0	47661	34.1	3
0	47662	34.1	3
0	47663	34.1	3
0	47915	34.15	3
0	47916	34.15	3
0	47917	34.15	3
0	47918	34.15	3
0	48084	34.2	3
0	48085	34.2	3
0	48086	34.2	3
0	48087	34.2	3
0	48088	34.2	3
0	48089	34.2	3
0	48090	34.2	3
0	48091	34.2	3
0	48132	34.25	3
0	48133	34.25	3
0	48134	34.25	3
0	48135	34.25	3
0	48168	34.3	3
0	48169	34.3	3
0	48170	34.3	3
0	48171	34.3	3
0	48172	34.3	3
0	48173	34.3	3
0	48174	34.3	3
0	48175	34.3	3
0	48216	34.35	3
0	48217	34.35	3
0	48218	34.35	3
0	48219	34.35	3
0	48252	34.4	3
0	48253	34.4	3
0	48254	34.4	3
0	48255	34.4	3
0	48256	34.4	3
0	48257	34.4	3
0	48258	34.4	3
0	48259	34.4	3
0	48300	34.45	3
0	48301	34.45	3
0	48302	34.45	3
0	48303	34.45	3
0	48336	34.5	3
0	48337	34.5	3
0	48338	34.5	3
0	48339	34.5	3
0	48340	34.5	3
0	48341	34.5	3
0	48342	34.5	3
0	48343	34.5	3
0	48384	34.55	3
0	48385	34.55	3
0	48386	34.55	3
0	48387	34.55	3
0	48420	34.6	3
0	48421	34.6	3
0	48422	34.6	3
0	48423	34.6	3
0	48424	34.6	3
0	48425	34.6	3
0	48426	34.6	3
0	48427	34.6	3
0	48468	34.65	3
0	48469	34.65	3
0	48470	34.65	3
0	48471	34.65	3
0	48708	34.7	3
0	48709	34.7	3
0	48710	34.7	3
0	48711	34.7	3
0	48712	34.7	3
0	48713	34.7	3
0	48714	34.7	3
0	48715	34.7	3
0	48828	34.75	3
0	48829	34.75	3
0	48830	34.75	3
0	48831	34.75	3
0	48864	34.8	3
0	48865	34.8	3
0	48866	34.8	3
0	48867	34.8	3
0	48868	34.8	3
0	48869	34.8	3
0	48870	34.8	3
0	48871	34.8	3
0	48912	34.85	3
0	48913	34.85	3
0	48914	34.85	3
0	48915	34.85	3
0	48948	34.9	3
0	48949	34.9	3
0	48950	34.9	3
0	48951	34.9	3
0	48952	34.9	3
0	48953	34.9	3
0	48954	34.9	3
0	48955	34.9	3
0	48996	34.95	3
0	48997	34.95	3
0	48998	34.95	3
0	48999	34.95	3
0	49034	35	3
0	49035	35	3
0	49036	35	3
0	49037	35	3
0	49038	35	3
0	49039	35	3
0	49040	35	3
0	49041	35	3
0	49082	35.05	3
0	49083	35.05	3
0	49084	35.05	3
0	49085	35.05	3
0	49122	35.1	3
0	49123	35.1	3
0	49124	35.1	3
0	49125	35.1	3
0	49126	35.1	3
0	49127	35.1	3
0	49128	35.1	3
0	49129	35.1	3
0	49175	35.15	3
0	49176	35.15	3
0	49177	35.15	3
0	49178	35.15	3
0	49211	35.2	3
0	49212	35.2	3
0	49213	35.2	3
0	49214	35.2	3
0	49215	35.2	3
0	49216	35.2	3
0	49217	35.2	3
0	49218	35.2	3
0	49465	35.25	3
0	49466	35.25	3
0	49467	35.25	3
0	49468	35.25	3
0	49634	35.3	3
0	49635	35.3	3
0	49636	35.3	3
0	49637	35.3	3
0	49638	35.3	3
0	49639	35.3	3
0	49640	35.3	3
0	49641	35.3	3
0	49682	35.35	3
0	49683	35.35	3
0	49684	35.35	3
0	49685	35.35	3
0	49718	35.4	3
0	49719	35.4	3
0	49720	35.4	3
0	49721	35.4	3
0	49722	35.4	3
0	49723	35.4	3
0	49724	35.4	3
0	49725	35.4	3
0	49766	35.45	3
0	49767	35.45	3
0	49768	35.45	3
0	49769	35.45	3
0	49802	35.5	3
0	49803	35.5	3
0	49804	35.5	3
0	49805	35.5	3
0	49806	35.5	3
0	49807	35.5	3
0	49808	35.5	3
0	49809	35.5	3
0	49850	35.55	3
0	49851	35.55	3
0	49852	35.55	3
0	49853	35.55	3
0	49886	35.6	3
0	49887	35.6	3
0	49888	35.6	3
0	49889	35.6	3
0	49890	35.6	3
0	49891	35.6	3
0	49892	35.6	3
0	49893	35.6	3
0	49934	35.65	3
0	49935	35.65	3
0	49936	35.65	3
0	49937	35.65	3
0	49970	35.7	3
0	49971	35.7	3
0	49972	35.7	3
0	49973	35.7	3
0	49974	35.7	3
0	49975	35.7	3
0	49976	35.7	3
0	49977	35.7	3
0	50018	35.75	3
0	50019	35.75	3
0	50020	35.75	3
0	50021	35.75	3
0	50258	35.8	3
0	50259	35.8	3
0	50260	35.8	3
0	50261	35.8	3
0	50262	35.8	3
0	50263	35.8	3
0	50264	35.8	3
0	50265	35.8	3
0	50378	35.85	3
0	50379	35.85	3
0	50380	35.85	3
0	50381	35.85	3
0	50414	35.9	3
0	50415	35.9	3
0	50416	35.9	3
0	50417	35.9	3
0	50418	35.9	3
0	50419	35.9	3
0	50420	35.9	3
0	50421	35.9	3
0	50462	35.95	3
0	50463	35.95	3
0	50464	35.95	3
0	50465	35.95	3
0	50500	36	3
0	50501	36	3
0	50502	36	3
0	50503	36	3
0	50504	36	3
0	50505	36	3
0	50506	36	3
0	50507	36	3
0	50548	36.05	3
0	50549	36.05	3
0	50550	36.05	3
0	50551	36.05	3
0	50588	36.1	3
0	50589	36.1	3
0	50590	36.1	3
0	50591	36.1	3
0	50592	36.1	3
0	50593	36.1	3
0	50594	36.1	3
0	50595	36.1	3
0	50641	36.15	3
0	50642	36.15	3
0	50643	36.15	3
0	50644	36.15	3
0	50677	36.2	3
0	50678	36.2	3
0	50679	36.2	3
0	50680	36.2	3
0	50681	36.2	3
0	50682	36.2	3
0	50683	36.2	3
0	50684	36.2	3
0	50725	36.25	3
0	50726	36.25	3
0	50727	36.25	3
0	50728	36.25	3
0	50761	36.3	3
0	50762	36.3	3
0	50763	36.3	3
0	50764	36.3	3
0	50765	36.3	3
0	50766	36.3	3
0	50767	36.3	3
0	50768	36.3	3
0	51015	36.35	3
0	51016	36.35	3
0	51017	36.35	3
0	51018	36.35	3
0	51184	36.4	3
0	51185	36.4	3
0	51186	36.4	3
0	51187	36.4	3
0	51188	36.4	3
0	51189	36.4	3
0	51190	36.4	3
0	51191	36.4	3
0	51232	36.45	3
0	51233	36.45	3
0	51234	36.45	3
0	51235	36.45	3
0	51268	36.5	3
0	51269	36.5	3
0	51270	36.5	3
0	51271	36.5	3
0	51272	36.5	3
0	51273	36.5	3
0	51274	36.5	3
0	51275	36.5	3
0	51316	36.55	3
0	51317	36.55	3
0	51318	36.55	3
0	51319	36.55	3
0	51352	36.6	3
0	51353	36.6	3
0	51354	36.6	3
0	51355	36.6	3
0	51356	36.6	3
0	51357	36.6	3
0	51358	36.6	3
0	51359	36.6	3
0	51400	36.65	3
0	51401	36.65	3
0	51402	36.65	3
0	51403	36.65	3
0	51436	36.7	3
0	51437	36.7	3
0	51438	36.7	3
0	51439	36.7	3
0	51440	36.7	3
0	51441	36.7	3
0	51442	36.7	3
0	51443	36.7	3
0	51484	36.75	3
0	51485	36.75	3
0	51486	36.75	3
0	51487	36.75	3
0	51520	36.8	3
0	51521	36.8	3
0	51522	36.8	3
0	51523	36.8	3
0	51524	36.8	3
0	51525	36.8	3
0	51526	36.8	3
0	51527	36.8	3
0	51568	36.85	3
0	51569	36.85	3
0	51570	36.85	3
0	51571	36.85	3
0	51808	36.9	3
0	51809	36.9	3
0	51810	36.9	3
0	51811	36.9	3
0	51812	36.9	3
0	51813	36.9	3
0	51814	36.9	3
0	51815	36.9	3
0	51928	36.95	3
0	51929	36.95	3
0	51930	36.95	3
0	51931	36.95	3
0	51966	37	3
0	51967	37	3
0	51968	37	3
0	51969	37	3
0	51970	37	3
0	51971	37	3
0	51972	37	3
0	51973	37	3
0	52014	37.05	3
0	52015	37.05	3
0	52016	37.05	3
0	52017	37.05	3
0	52054	37.1	3
0	52055	37.1	3
0	52056	37.1	3
0	52057	37.1	3
0	52058	37.1	3
0	52059	37.1	3
0	52060	37.1	3
0	52061	37.1	3
0	52107	37.15	3
0	52108	37.15	3
0	52109	37.15	3
0	52110	37.15	3
0	52143	37.2	3
0	52144	37.2	3
0	52145	37.2	3
0	52146	37.2	3
0	52147	37.2	3
0	52148	37.2	3
0	52149	37.2	3
0	52150	37.2	3
0	52191	37.25	3
0	52192	37.25	3
0	52193	37.25	3
0	52194	37.25	3
0	52227	37.3	3
0	52228	37.3	3
0	52229	37.3	3
0	52230	37.3	3
0	52231	37.3	3
0	52232	37.3	3
0	52233	37.3	3
0	52234	37.3	3
0	52275	37.35	3
0	52276	37.35	3
0	52277	37.35	3
0	52278	37.35	3
0	52311	37.4	3
0	52312	37.4	3
0	52313	37.4	3
0	52314	37.4	3
0	52315	37.4	3
0	52316	37.4	3
0	52317	37.4	3
0	52318	37.4	3
0	52565	37.45	3
0	52566	37.45	3
0	52567	37.45	3
0	52568	37.45	3
0	52734	37.5	3
0	52735	37.5	3
0	52736	37.5	3
0	52737	37.5	3
0	52738	37.5	3
0	52739	37.5	3
0	52740	37.5	3
0	52741	37.5	3
0	52782	37.55	3
0	52783	37.55	3
0	52784	37.55	3
0	52785	37.55	3
0	52818	37.6	3
0	52819	37.6	3
0	52820	37.6	3
0	52821	37.6	3
0	52822	37.6	3
0	52823	37.6	3
0	52824	37.6	3
0	52825	37.6	3
0	52866	37.65	3
0	52867	37.65	3
0	52868	37.65	3
0	52869	37.65	3
0	52902	37.7	3
0	52903	37.7	3
0	52904	37.7	3
0	52905	37.7	3
0	52906	37.7	3
0	52907	37.7	3
0	52908	37.7	3
0	52909	37.7	3
0	52950	37.75	3
0	52951	37.75	3
0	52952	37.75	3
0	52953	37.75	3
0	52986	37.8	3
0	52987	37.8	3
0	52988	37.8	3
0	52989	37.8	3
0	52990	37.8	3
0	52991	37.8	3
0	52992	37.8	3
0	52993	37.8	3
0	53034	37.85	3
0	53035	37.85	3
0	53036	37.85	3
0	53037	37.85	3
0	53070	37.9	3
0	53071	37.9	3
0	53072	37.9	3
0	53073	37.9	3
0	53074	37.9	3
0	53075	37.9	3
0	53076	37.9	3
0	53077	37.9	3
0	53118	37.95	3
0	53119	37.95	3
0	53120	37.95	3
0	53121	37.95	3
0	53360	38	3
0	53361	38	3
0	53362	38	3
0	53363	38	3
0	53364	38	3
0	53365	38	3
0	53366	38	3
0	53367	38	3
0	53480	38.05	3
0	53481	38.05	3
0	53482	38.05	3
0	53483	38.05	3
0	53520	38.1	3
0	53521	38.1	3
0	53522	38.1	3
0	53523	38.1	3
0	53524	38.1	3
0	53525	38.1	3
0	53526	38.1	3
0	53527	38.1	3
0	53573	38.15	3
0	53574	38.15	3
0	53575	38.15	3
0	53576	38.15	3
0	53609	38.2	3
0	53610	38.2	3
0	53611	38.2	3
0	53612	38.2	3
0	53613	38.2	3
0	53614	38.2	3
0	53615	38.2	3
0	53616	38.2	3
0	53657	38.25	3
0	53658	38.25	3
0	53659	38.25	3
0	53660	38.25	3
0	53693	38.3	3
0	53694	38.3	3
0	53695	38.3	3
0	53696	38.3	3
0	53697	38.3	3
0	53698	38.3	3
0	53699	38.3	3
0	53700	38.3	3
0	53741	38.35	3
0	53742	38.35	3
0	53743	38.35	3
0	53744	38.35	3
0	53777	38.4	3
0	53778	38.4	3
0	53779	38.4	3
0	53780	38.4	3
0	53781	38.4	3
0	53782	38.4	3
0	53783	38.4	3
0	53784	38.4	3
0	53825	38.45	3
0	53826	38.45	3
0	53827	38.45	3
0	53828	38.45	3
0	53861	38.5	3
0	53862	38.5	3
0	53863	38.5	3
0	53864	38.5	3
0	53865	38.5	3
0	53866	38.5	3
0	53867	38.5	3
0	53868	38.5	3
0	54115	38.55	3
0	54116	38.55	3
0	54117	38.55	3
0	54118	38.55	3
0	54284	38.6	3
0	54285	38.6	3
0	54286	38.6	3
0	54287	38.6	3
0	54288	38.6	3
0	54289	38.6	3
0	54290	38.6	3
0	54291	38.6	3
0	54332	38.65	3
0	54333	38.65	3
0	54334	38.65	3
0	54335	38.65	3
0	54368	38.7	3
0	54369	38.7	3
0	54370	38.7	3
0	54371	38.7	3
0	54372	38.7	3
0	54373	38.7	3
0	54374	38.7	3
0	54375	38.7	3
0	54416	38.75	3
0	54417	38.75	3
0	54418	38.75	3
0	54419	38.75	3
0	54452	38.8	3
0	54453	38.8	3
0	54454	38.8	3
0	54455	38.8	3
0	54456	38.8	3
0	54457	38.8	3
0	54458	38.8	3
0	54459	38.8	3
0	54500	38.85	3
0	54501	38.85	3
0	54502	38.85	3
0	54503	38.85	3
0	54536	38.9	3
0	54537	38.9	3
0	54538	38.9	3
0	54539	38.9	3
0	54540	38.9	3
0	54541	38.9	3
0	54542	38.9	3
0	54543	38.9	3
0	54584	38.95	3
0	54585	38.95	3
0	54586	38.95	3
0	54587	38.95	3
0	54622	39	3
0	54623	39	3
0	54624	39	3
0	54625	39	3
0	54626	39	3
0	54627	39	3
0	54628	39	3
0	54629	39	3
0	54670	39.05	3
0	54671	39.05	3
0	54672	39.05	3
0	54673	39.05	3
0	54914	39.1	3
0	54915	39.1	3
0	54916	39.1	3
0	54917	39.1	3
0	54918	39.1	3
0	54919	39.1	3
0	54920	39.1	3
0	54921	39.1	3
0	55081	39.15	3
0	55082	39.15	3
0	55083	39.15	3
0	55084	39.15	3
0	55117	39.2	3
0	55118	39.2	3
0	55119	39.2	3
0	55120	39.2	3
0	55121	39.2	3
0	55122	39.2	3
0	55123	39.2	3
0	55124	39.2	3
0	55165	39.25	3
0	55166	39.25	3
0	55167	39.25	3
0	55168	39.25	3
0	55201	39.3	3
0	55202	39.3	3
0	55203	39.3	3
0	55204	39.3	3
0	55205	39.3	3
0	55206	39.3	3
0	55207	39.3	3
0	55208	39.3	3
0	55249	39.35	3
0	55250	39.35	3
0	55251	39.35	3
0	55252	39.35	3
0	55285	39.4	3
0	55286	39.4	3
0	55287	39.4	3
0	55288	39.4	3
0	55289	39.4	3
0	55290	39.4	3
0	55291	39.4	3
0	55292	39.4	3
0	55333	39.45	3
0	55334	39.45	3
0	55335	39.45	3
0	55336	39.45	3
0	55369	39.5	3
0	55370	39.5	3
0	55371	39.5	3
0	55372	39.5	3
0	55373	39.5	3
0	55374	39.5	3
0	55375	39.5	3
0	55376	39.5	3
0	55417	39.55	3
0	55418	39.55	3
0	55419	39.55	3
0	55420	39.55	3
0	55453	39.6	3
0	55454	39.6	3
0	55455	39.6	3
0	55456	39.6	3
0	55457	39.6	3
0	55458	39.6	3
0	55459	39.6	3
0	55460	39.6	3
0	55707	39.65	3
0	55708	39.65	3
0	55709	39.65	3
0	55710	39.65	3
0	55834	39.7	3
0	55835	39.7	3
0	55836	39.7	3
0	55837	39.7	3
0	55838	39.7	3
0	55839	39.7	3
0	55840	39.7	3
0	55841	39.7	3
0	55882	39.75	3
0	55883	39.75	3
0	55884	39.75	3
0	55885	39.75	3
0	55918	39.8	3
0	55919	39.8	3
0	55920	39.8	3
0	55921	39.8	3
0	55922	39.8	3
0	55923	39.8	3
0	55924	39.8	3
0	55925	39.8	3
0	55966	39.85	3
0	55967	39.85	3
0	55968	39.85	3
0	55969	39.85	3
0	56002	39.9	3
0	56003	39.9	3
0	56004	39.9	3
0	56005	39.9	3
0	56006	39.9	3
0	56007	39.9	3
0	56008	39.9	3
0	56009	39.9	3
0	56050	39.95	3
0	56051	39.95	3
0	56052	39.95	3
0	56053	39.95	3
0	56088	40	3
0	56089	40	3
0	56090	40	3
0	56091	40	3
0	56092	40	3
0	56093	40	3
0	56094	40	3
0	56095	40	3
0	56136	40.05	3
0	56137	40.05	3
0	56138	40.05	3
0	56139	40.05	3
0	56176	40.1	3
0	56177	40.1	3
0	56178	40.1	3
0	56179	40.1	3
0	56180	40.1	3
0	56181	40.1	3
0	56182	40.1	3
0	56183	40.1	3
0	56229	40.15	3
0	56230	40.15	3
0	56231	40.15	3
0	56232	40.15	3
0	56471	40.2	3
0	56472	40.2	3
0	56473	40.2	3
0	56474	40.2	3
0	56475	40.2	3
0	56476	40.2	3
0	56477	40.2	3
0	56478	40.2	3
0	56652	40.25	3
0	56653	40.25	3
0	56654	40.25	3
0	56655	40.25	3
0	56688	40.3	3
0	56689	40.3	3
0	56690	40.3	3
0	56691	40.3	3
0	56692	40.3	3
0	56693	40.3	3
0	56694	40.3	3
0	56695	40.3	3
0	56736	40.35	3
0	56737	40.35	3
0	56738	40.35	3
0	56739	40.35	3
0	56772	40.4	3
0	56773	40.4	3
0	56774	40.4	3
0	56775	40.4	3
0	56776	40.4	3
0	56777	40.4	3
0	56778	40.4	3
0	56779	40.4	3
0	56820	40.45	3
0	56821	40.45	3
0	56822	40.45	3
0	56823	40.45	3
0	56856	40.5	3
0	56857	40.5	3
0	56858	40.5	3
0	56859	40.5	3
0	56860	40.5	3
0	56861	40.5	3
0	56862	40.5	3
0	56863	40.5	3
0	56904	40.55	3
0	56905	40.55	3
0	56906	40.55	3
0	56907	40.55	3
0	56940	40.6	3
0	56941	40.6	3
0	56942	40.6	3
0	56943	40.6	3
0	56944	40.6	3
0	56945	40.6	3
0	56946	40.6	3
0	56947	40.6	3
0	56988	40.65	3
0	56989	40.65	3
0	56990	40.65	3
0	56991	40.65	3
0	57024	40.7	3
0	57025	40.7	3
0	57026	40.7	3
0	57027	40.7	3
0	57028	40.7	3
0	57029	40.7	3
0	57030	40.7	3
0	57031	40.7	3
0	57276	40.75	3
0	57277	40.75	3
0	57278	40.75	3
0	57279	40.75	3
0	57384	40.8	3
0	57385	40.8	3
0	57386	40.8	3
0	57387	40.8	3
0	57388	40.8	3
0	57389	40.8	3
0	57390	40.8	3
0	57391	40.8	3
0	57432	40.85	3
0	57433	40.85	3
0	57434	40.85	3
0	57435	40.85	3
0	57468	40.9	3
0	57469	40.9	3
0	57470	40.9	3
0	57471	40.9	3
0	57472	40.9	3
0	57473	40.9	3
0	57474	40.9	3
0	57475	40.9	3
0	57516	40.95	3
0	57517	40.95	3
0	57518	40.95	3
0	57519	40.95	3
0	57554	41	3
0	57555	41	3
0	57556	41	3
0	57557	41	3
0	57558	41	3
0	57559	41	3
0	57560	41	3
0	57561	41	3
0	57602	41.05	3
0	57603	41.05	3
0	57604	41.05	3
0	57605	41.05	3
0	57642	41.1	3
0	57643	41.1	3
0	57644	41.1	3
0	57645	41.1	3
0	57646	41.1	3
0	57647	41.1	3
0	57648	41.1	3
0	57649	41.1	3
0	57695	41.15	3
0	57696	41.15	3
0	57697	41.15	3
0	57698	41.15	3
0	57731	41.2	3
0	57732	41.2	3
0	57733	41.2	3
0	57734	41.2	3
0	57735	41.2	3
0	57736	41.2	3
0	57737	41.2	3
0	57738	41.2	3
0	57779	41.25	3
0	57780	41.25	3
0	57781	41.25	3
0	57782	41.25	3
0	58021	41.3	3
0	58022	41.3	3
0	58023	41.3	3
0	58024	41.3	3
0	58025	41.3	3
0	58026	41.3	3
0	58027	41.3	3
0	58028	41.3	3
0	58202	41.35	3
0	58203	41.35	3
0	58204	41.35	3
0	58205	41.35	3
0	58238	41.4	3
0	58239	41.4	3
0	58240	41.4	3
0	58241	41.4	3
0	58242	41.4	3
0	58243	41.4	3
0	58244	41.4	3
0	58245	41.4	3
0	58286	41.45	3
0	58287	41.45	3
0	58288	41.45	3
0	58289	41.45	3
0	58322	41.5	3
0	58323	41.5	3
0	58324	41.5	3
0	58325	41.5	3
0	58326	41.5	3
0	58327	41.5	3
0	58328	41.5	3
0	58329	41.5	3
0	58370	41.55	3
0	58371	41.55	3
0	58372	41.55	3
0	58373	41.55	3
0	58406	41.6	3
0	58407	41.6	3
0	58408	41.6	3
0	58409	41.6	3
0	58410	41.6	3
0	58411	41.6	3
0	58412	41.6	3
0	58413	41.6	3
0	58454	41.65	3
0	58455	41.65	3
0	58456	41.65	3
0	58457	41.65	3
0	58490	41.7	3
0	58491	41.7	3
0	58492	41.7	3
0	58493	41.7	3
0	58494	41.7	3
0	58495	41.7	3
0	58496	41.7	3
0	58497	41.7	3
0	58538	41.75	3
0	58539	41.75	3
0	58540	41.75	3
0	58541	41.75	3
0	58574	41.8	3
0	58575	41.8	3
0	58576	41.8	3
0	58577	41.8	3
0	58578	41.8	3
0	58579	41.8	3
0	58580	41.8	3
0	58581	41.8	3
0	58826	41.85	3
0	58827	41.85	3
0	58828	41.85	3
0	58829	41.85	3
0	58934	41.9	3
0	58935	41.9	3
0	58936	41.9	3
0	58937	41.9	3
0	58938	41.9	3
0	58939	41.9	3
0	58940	41.9	3
0	58941	41.9	3
0	58982	41.95	3
0	58983	41.95	3
0	58984	41.95	3
0	58985	41.95	3
0	59020	42	3
0	59021	42	3
0	59022	42	3
0	59023	42	3
0	59024	42	3
0	59025	42	3
0	59026	42	3
0	59027	42	3
0	59068	42.05	3
0	59069	42.05	3
0	59070	42.05	3
0	59071	42.05	3
0	59108	42.1	3
0	59109	42.1	3
0	59110	42.1	3
0	59111	42.1	3
0	59112	42.1	3
0	59113	42.1	3
0	59114	42.1	3
0	59115	42.1	3
0	59161	42.15	3
0	59162	42.15	3
0	59163	42.15	3
0	59164	42.15	3
0	59197	42.2	3
0	59198	42.2	3
0	59199	42.2	3
0	59200	42.2	3
0	59201	42.2	3
0	59202	42.2	3
0	59203	42.2	3
0	59204	42.2	3
0	59245	42.25	3
0	59246	42.25	3
0	59247	42.25	3
0	59248	42.25	3
0	59281	42.3	3
0	59282	42.3	3
0	59283	42.3	3
0	59284	42.3	3
0	59285	42.3	3
0	59286	42.3	3
0	59287	42.3	3
0	59288	42.3	3
0	59329	42.35	3
0	59330	42.35	3
0	59331	42.35	3
0	59332	42.35	3
0	59571	42.4	3
0	59572	42.4	3
0	59573	42.4	3
0	59574	42.4	3
0	59575	42.4	3
0	59576	42.4	3
0	59577	42.4	3
0	59578	42.4	3
0	59752	42.45	3
0	59753	42.45	3
0	59754	42.45	3
0	59755	42.45	3
0	59788	42.5	3
0	59789	42.5	3
0	59790	42.5	3
0	59791	42.5	3
0	59792	42.5	3
0	59793	42.5	3
0	59794	42.5	3
0	59795	42.5	3
0	59836	42.55	3
0	59837	42.55	3
0	59838	42.55	3
0	59839	42.55	3
0	59872	42.6	3
0	59873	42.6	3
0	59874	42.6	3
0	59875	42.6	3
0	59876	42.6	3
0	59877	42.6	3
0	59878	42.6	3
0	59879	42.6	3
0	59920	42.65	3
0	59921	42.65	3
0	59922	42.65	3
0	59923	42.65	3
0	59956	42.7	3
0	59957	42.7	3
0	59958	42.7	3
0	59959	42.7	3
0	59960	42.7	3
0	59961	42.7	3
0	59962	42.7	3
0	59963	42.7	3
0	60004	42.75	3
0	60005	42.75	3
0	60006	42.75	3
0	60007	42.75	3
0	60040	42.8	3
0	60041	42.8	3
0	60042	42.8	3
0	60043	42.8	3
0	60044	42.8	3
0	60045	42.8	3
0	60046	42.8	3
0	60047	42.8	3
0	60088	42.85	3
0	60089	42.85	3
0	60090	42.85	3
0	60091	42.85	3
0	60124	42.9	3
0	60125	42.9	3
0	60126	42.9	3
0	60127	42.9	3
0	60128	42.9	3
0	60129	42.9	3
0	60130	42.9	3
0	60131	42.9	3
0	60376	42.95	3
0	60377	42.95	3
0	60378	42.95	3
0	60379	42.95	3
0	60486	43	3
0	60487	43	3
0	60488	43	3
0	60489	43	3
0	60490	43	3
0	60491	43	3
0	60492	43	3
0	60493	43	3
0	60534	43.05	3
0	60535	43.05	3
0	60536	43.05	3
0	60537	43.05	3
0	60574	43.1	3
0	60575	43.1	3
0	60576	43.1	3
0	60577	43.1	3
0	60578	43.1	3
0	60579	43.1	3
0	60580	43.1	3
0	60581	43.1	3
0	60627	43.15	3
0	60628	43.15	3
0	60629	43.15	3
0	60630	43.15	3
0	60663	43.2	3
0	60664	43.2	3
0	60665	43.2	3
0	60666	43.2	3
0	60667	43.2	3
[...]
2	117356	83.122299886012	35391
2	118117	83.67221835206	35532
2	118903	84.22221835206	35673
2	118905	84.22221835206	35814
2	118919	84.222299886012	35955
2	120453	85.32221835206	36096
2	120455	85.32221835206	36237
2	120469	85.322299886012	36378
2	122000	86.42221835206	36519
2	122011	86.422263464513	36660
2	122018	86.422280751662	36801
2	122788	86.97221835206	36942
2	122807	86.98605835206	37083
2	123590	87.52221835206	37224
2	123601	87.522263464513	37365
2	123609	87.522280751662	37506
2	125138	88.62221835206	37647
2	125149	88.622263464513	37788
2	125157	88.622280751662	37929
2	125942	89.17221835206	38070
2	125953	89.172263464513	38211
2	125961	89.172280751662	38352
2	127490	90.27221835206	38493
2	127501	90.272263464513	38634
2	127509	90.272280751662	38775
2	129040	91.37221835206	38916
2	129051	91.372263464513	39057
2	129059	91.372280751662	39198
2	130590	92.47221835206	39339
2	130601	92.472263464513	39480
2	130609	92.472280751662	39621
2	132138	93.57221835206	39762
2	132149	93.572263464513	39903
2	132157	93.572280751662	40044
2	132952	94.122263464513	40185
2	132960	94.122280751662	40326
2	133721	94.67221835206	40467
2	134502	95.22221835206	40608
2	134513	95.222263464513	40749
2	134521	95.222280751662	40890
2	136052	96.32221835206	41031
2	136063	96.322263464513	41172
2	136071	96.322280751662	41313
2	137602	97.42221835206	41454
2	137613	97.422263464513	41595
2	137621	97.422280751662	41736
2	139152	98.52221835206	41877
2	139163	98.522263464513	42018
2	139171	98.522280751662	42159
2	140702	99.62221835206	42300
2	140713	99.622263464513	42441
2	140721	99.622280751662	42582
2	141508	100.17221835206	42723
2	141519	100.172263464513	42864
2	141527	100.172280751662	43005
2	143058	101.27221835206	43146
2	143069	101.272263464513	43287
2	143077	101.272280751662	43428
2	144608	102.37221835206	43569
2	144619	102.372263464513	43710
2	144627	102.372280751662	43851
2	146158	103.47221835206	43992
2	146169	103.472263464513	44133
2	146177	103.472280751662	44274
2	147708	104.57221835206	44415
2	147719	104.572263464513	44556
2	147727	104.572280751662	44697
2	148524	105.122263464513	44838
2	148532	105.122280751662	44979
2	149293	105.67221835206	45120
2	150076	106.22221835206	45261
2	150087	106.222263464513	45402
2	150095	106.222280751662	45543
2	151626	107.32221835206	45684
2	151637	107.322263464513	45825
2	151645	107.322280751662	45966
2	153176	108.42221835206	46107
2	153187	108.422263464513	46248
2	153195	108.422280751662	46389
2	154726	109.52221835206	46530
2	154737	109.522263464513	46671
2	154745	109.522280751662	46812
2	156276	110.62221835206	46953
2	156287	110.622263464513	47094
2	156295	110.622280751662	47235
2	157082	111.17221835206	47376
2	157093	111.172263464513	47517
2	157101	111.172280751662	47658
2	158632	112.27221835206	47799
2	158643	112.272263464513	47940
2	158651	112.272280751662	48081
2	160182	113.37221835206	48222
2	160193	113.372263464513	48363
2	160201	113.372280751662	48504
2	161732	114.47221835206	48645
2	161743	114.472263464513	48786
2	161751	114.472280751662	48927
2	163282	115.57221835206	49068
2	163293	115.572263464513	49209
2	163301	115.572280751662	49350
2	164098	116.122263464513	49491
2	164106	116.122280751662	49632
2	164867	116.67221835206	49773
2	165650	117.22221835206	49914
2	165661	117.222263464513	50055
2	165669	117.222280751662	50196
2	167200	118.32221835206	50337
2	167211	118.322263464513	50478
2	167219	118.322280751662	50619
2	168750	119.42221835206	50760
2	168761	119.422263464513	50901
2	168769	119.422280751662	51042
2	170300	120.52221835206	51183
2	170311	120.522263464513	51324
2	170319	120.522280751662	51465
2	171850	121.62221835206	51606
2	171861	121.622263464513	51747
2	171869	121.622280751662	51888
2	172656	122.17221835206	52029
2	172667	122.172263464513	52170
2	172675	122.172280751662	52311
2	174206	123.27221835206	52452
2	174217	123.272263464513	52593
2	174225	123.272280751662	52734
2	175756	124.37221835206	52875
2	175767	124.372263464513	53016
2	175775	124.372280751662	53157
2	177306	125.47221835206	53298
2	177317	125.472263464513	53439
2	177325	125.472280751662	53580
2	178856	126.57221835206	53721
2	178867	126.572263464513	53862
2	178875	126.572280751662	54003
2	179672	127.122263464513	54144
2	179680	127.122280751662	54285
2	180441	127.67221835206	54426
2	181224	128.22221835206	54567
2	181235	128.222263464513	54708
2	181243	128.222280751662	54849
2	182774	129.32221835206	54990
2	182785	129.322263464513	55131
2	182793	129.322280751662	55272
2	184324	130.42221835206	55413
2	184335	130.422263464513	55554
2	184343	130.422280751662	55695
2	185874	131.52221835206	55836
2	185885	131.522263464513	55977
2	185893	131.522280751662	56118
2	187424	132.62221835206	56259
2	187435	132.622263464513	56400
2	187443	132.622280751662	56541
2	188230	133.17221835206	56682
2	188241	133.172263464513	56823
2	188249	133.172280751662	56964
2	189780	134.27221835206	57105
2	189791	134.272263464513	57246
2	189799	134.272280751662	57387
2	191330	135.37221835206	57528
2	191341	135.372263464513	57669
2	191349	135.372280751662	57810
2	192880	136.47221835206	57951
2	192891	136.472263464513	58092
2	192899	136.472280751662	58233
2	194430	137.57221835206	58374
2	194441	137.572263464513	58515
2	194449	137.572280751662	58656
2	195246	138.122263464513	58797
2	195254	138.122280751662	58938
2	196015	138.67221835206	59079
2	196798	139.22221835206	59220
2	196809	139.222263464513	59361
2	196817	139.222280751662	59502
2	198348	140.32221835206	59643
2	198359	140.322263464513	59784
2	198367	140.322280751662	59925
2	199898	141.42221835206	60066
2	199909	141.422263464513	60207
2	199917	141.422280751662	60348
2	201448	142.52221835206	60489
2	201459	142.522263464513	60630
2	201467	142.522280751662	60771
2	202998	143.62221835206	60912
2	203009	143.622263464513	61053
2	203017	143.622280751662	61194
2	203804	144.17221835206	61335
2	203815	144.172263464513	61476
2	203823	144.172280751662	61617
2	205354	145.27221835206	61758
2	205365	145.272263464513	61899
2	205373	145.272280751662	62040
2	206904	146.37221835206	62181
2	206915	146.372263464513	62322
2	206923	146.372280751662	62463
2	208454	147.47221835206	62604
2	208465	147.472263464513	62745
2	208473	147.472280751662	62886
2	210004	148.57221835206	63027
2	210015	148.572263464513	63168
2	210023	148.572280751662	63309
2	210820	149.122263464513	63450
2	210828	149.122280751662	63591
2	211589	149.67221835206	63732
3	13963	10.52221835206	141
3	13973	10.522299886012	282
3	13999	10.53605835206	423
3	14009	10.536139886012	564
3	14035	10.54989835206	705
3	14045	10.549979886012	846
3	14107	10.56373835206	987
3	14117	10.563819886012	1128
3	14143	10.57757835206	1269
3	14153	10.577659886012	1410
3	14179	10.59141835206	1551
3	14189	10.591499886012	1692
3	14263	10.60525835206	1833
3	14273	10.605339886012	1974
3	14299	10.61909835206	2115
3	14309	10.619179886012	2256
3	14335	10.63293835206	2397
3	14345	10.633019886012	2538
3	14371	10.64677835206	2679
3	14381	10.646859886012	2820
3	14443	10.66061835206	2961
3	14453	10.660699886012	3102
3	15117	11.07221835206	3243
3	15136	11.08605835206	3384
3	15155	11.09989835206	3525
3	15231	11.11373835206	3666
3	15250	11.12757835206	3807
3	15269	11.14141835206	3948
3	15324	11.15525835206	4089
3	15343	11.16909835206	4230
3	15362	11.18293835206	4371
3	15381	11.19677835206	4512
3	15448	11.21061835206	4653
3	16091	11.62221835206	4794
3	16093	11.62221835206	4935
3	16107	11.622299886012	5076
3	16897	12.17221835206	5217
3	16899	12.17221835206	5358
3	16913	12.172299886012	5499
3	18445	13.27221835206	5640
3	18447	13.27221835206	5781
3	18461	13.272299886012	5922
3	19993	14.37221835206	6063
3	19995	14.37221835206	6204
3	20009	14.372299886012	6345
3	21541	15.47221835206	6486
3	21543	15.47221835206	6627
3	21557	15.472299886012	6768
3	23091	16.57221835206	6909
3	23093	16.57221835206	7050
3	23107	16.572299886012	7191
3	23901	17.12221835206	7332
3	23912	17.122299886012	7473
3	24673	17.67221835206	7614
3	25459	18.22221835206	7755
3	25461	18.22221835206	7896
3	25475	18.222299886012	8037
3	27009	19.32221835206	8178
3	27011	19.32221835206	8319
3	27025	19.322299886012	8460
3	28559	20.42221835206	8601
3	28561	20.42221835206	8742
3	28575	20.422299886012	8883
3	30109	21.52221835206	9024
3	30111	21.52221835206	9165
3	30125	21.522299886012	9306
3	31659	22.62221835206	9447
3	31661	22.62221835206	9588
3	31675	22.622299886012	9729
3	32465	23.17221835206	9870
3	32467	23.17221835206	10011
3	32481	23.172299886012	10152
3	34015	24.27221835206	10293
3	34017	24.27221835206	10434
3	34031	24.272299886012	10575
3	35565	25.37221835206	10716
3	35567	25.37221835206	10857
3	35581	25.372299886012	10998
3	37115	26.47221835206	11139
3	37117	26.47221835206	11280
3	37131	26.472299886012	11421
3	38665	27.57221835206	11562
3	38667	27.57221835206	11703
3	38681	27.572299886012	11844
3	39475	28.12221835206	11985
3	39486	28.122299886012	12126
3	40247	28.67221835206	12267
3	41033	29.22221835206	12408
3	41035	29.22221835206	12549
3	41049	29.222299886012	12690
3	42583	30.32221835206	12831
3	42585	30.32221835206	12972
3	42599	30.322299886012	13113
3	44133	31.42221835206	13254
3	44135	31.42221835206	13395
3	44149	31.422299886012	13536
3	45683	32.52221835206	13677
3	45685	32.52221835206	13818
3	45699	32.522299886012	13959
3	47233	33.62221835206	14100
3	47235	33.62221835206	14241
3	47249	33.622299886012	14382
3	48039	34.17221835206	14523
3	48041	34.17221835206	14664
3	48055	34.172299886012	14805
3	49589	35.27221835206	14946
3	49591	35.27221835206	15087
3	49605	35.272299886012	15228
3	51139	36.37221835206	15369
3	51141	36.37221835206	15510
3	51155	36.372299886012	15651
3	52689	37.47221835206	15792
3	52691	37.47221835206	15933
3	52705	37.472299886012	16074
3	54239	38.57221835206	16215
3	54241	38.57221835206	16356
3	54255	38.572299886012	16497
3	55049	39.12221835206	16638
3	55060	39.122299886012	16779
3	55821	39.67221835206	16920
3	56607	40.22221835206	17061
3	56609	40.22221835206	17202
3	56623	40.222299886012	17343
3	58157	41.32221835206	17484
3	58159	41.32221835206	17625
3	58173	41.322299886012	17766
3	59707	42.42221835206	17907
3	59709	42.42221835206	18048
3	59723	42.422299886012	18189
3	61257	43.52221835206	18330
3	61259	43.52221835206	18471
3	61273	43.522299886012	18612
3	62807	44.62221835206	18753
3	62809	44.62221835206	18894
3	62823	44.622299886012	19035
3	63613	45.17221835206	19176
3	63615	45.17221835206	19317
3	63629	45.172299886012	19458
3	65163	46.27221835206	19599
3	65165	46.27221835206	19740
3	65179	46.272299886012	19881
3	66713	47.37221835206	20022
3	66715	47.37221835206	20163
3	66729	47.372299886012	20304
3	68263	48.47221835206	20445
3	68265	48.47221835206	20586
3	68279	48.472299886012	20727
3	69813	49.57221835206	20868
3	69815	49.57221835206	21009
3	69829	49.572299886012	21150
3	70623	50.12221835206	21291
3	70634	50.122299886012	21432
3	71395	50.67221835206	21573
3	72181	51.22221835206	21714
3	72183	51.22221835206	21855
3	72197	51.222299886012	21996
3	73731	52.32221835206	22137
3	73733	52.32221835206	22278
3	73747	52.322299886012	22419
3	75281	53.42221835206	22560
3	75283	53.42221835206	22701
3	75297	53.422299886012	22842
3	76831	54.52221835206	22983
3	76833	54.52221835206	23124
3	76847	54.522299886012	23265
3	78381	55.62221835206	23406
3	78383	55.62221835206	23547
3	78397	55.622299886012	23688
3	79187	56.17221835206	23829
3	79189	56.17221835206	23970
3	79203	56.172299886012	24111
3	80737	57.27221835206	24252
3	80739	57.27221835206	24393
3	80753	57.272299886012	24534
3	82287	58.37221835206	24675
3	82289	58.37221835206	24816
3	82303	58.372299886012	24957
3	83837	59.47221835206	25098
3	83839	59.47221835206	25239
3	83853	59.472299886012	25380
3	85387	60.57221835206	25521
3	85389	60.57221835206	25662
3	85403	60.572299886012	25803
3	86197	61.12221835206	25944
3	86208	61.122299886012	26085
3	86969	61.67221835206	26226
3	87755	62.22221835206	26367
3	87757	62.22221835206	26508
3	87771	62.222299886012	26649
3	89305	63.32221835206	26790
3	89307	63.32221835206	26931
3	89321	63.322299886012	27072
3	90855	64.42221835206	27213
3	90857	64.42221835206	27354
3	90871	64.422299886012	27495
3	92405	65.52221835206	27636
3	92407	65.52221835206	27777
3	92421	65.522299886012	27918
3	93955	66.62221835206	28059
3	93957	66.62221835206	28200
3	93971	66.622299886012	28341
3	94761	67.17221835206	28482
3	94763	67.17221835206	28623
3	94777	67.172299886012	28764
3	96311	68.27221835206	28905
3	96313	68.27221835206	29046
3	96327	68.272299886012	29187
3	97861	69.37221835206	29328
3	97863	69.37221835206	29469
3	97877	69.372299886012	29610
3	99411	70.47221835206	29751
3	99413	70.47221835206	29892
3	99427	70.472299886012	30033
3	100961	71.57221835206	30174
3	100963	71.57221835206	30315
3	100977	71.572299886012	30456
3	101771	72.12221835206	30597
3	101782	72.122299886012	30738
3	102543	72.67221835206	30879
3	103329	73.22221835206	31020
3	103331	73.22221835206	31161
3	103345	73.222299886012	31302
3	104879	74.32221835206	31443
3	104881	74.32221835206	31584
3	104895	74.322299886012	31725
3	106429	75.42221835206	31866
3	106431	75.42221835206	32007
3	106445	75.422299886012	32148
3	107979	76.52221835206	32289
3	107981	76.52221835206	32430
3	107995	76.522299886012	32571
3	109529	77.62221835206	32712
3	109531	77.62221835206	32853
3	109545	77.622299886012	32994
3	110335	78.17221835206	33135
3	110337	78.17221835206	33276
3	110351	78.172299886012	33417
3	111885	79.27221835206	33558
3	111887	79.27221835206	33699
3	111901	79.272299886012	33840
3	113435	80.37221835206	33981
3	113437	80.37221835206	34122
3	113451	80.372299886012	34263
3	114985	81.47221835206	34404
3	114987	81.47221835206	34545
3	115001	81.472299886012	34686
3	116535	82.57221835206	34827
3	116537	82.57221835206	34968
3	116551	82.572299886012	35109
3	117345	83.12221835206	35250
3	117356	83.122299886012	35391
3	118117	83.67221835206	35532
3	118903	84.22221835206	35673
3	118905	84.22221835206	35814
3	118919	84.222299886012	35955
3	120453	85.32221835206	36096
3	120455	85.32221835206	36237
3	120469	85.322299886012	36378
3	122000	86.42221835206	36519
3	122011	86.422263464513	36660
3	122018	86.422280751662	36801
3	122788	86.97221835206	36942
3	122807	86.98605835206	37083
3	123590	87.52221835206	37224
3	123601	87.522263464513	37365
3	123609	87.522280751662	37506
3	125138	88.62221835206	37647
3	125149	88.622263464513	37788
3	125157	88.622280751662	37929
3	125942	89.17221835206	38070
3	125953	89.172263464513	38211
3	125961	89.172280751662	38352
3	127490	90.27221835206	38493
3	127501	90.272263464513	38634
3	127509	90.272280751662	38775
3	129040	91.37221835206	38916
3	129051	91.372263464513	39057
3	129059	91.372280751662	39198
3	130590	92.47221835206	39339
3	130601	92.472263464513	39480
3	130609	92.472280751662	39621
3	132138	93.57221835206	39762
3	132149	93.572263464513	39903
3	132157	93.572280751662	40044
3	132952	94.122263464513	40185
3	132960	94.122280751662	40326
3	133721	94.67221835206	40467
3	134502	95.22221835206	40608
3	134513	95.222263464513	40749
3	134521	95.222280751662	40890
3	136052	96.32221835206	41031
3	136063	96.322263464513	41172
3	136071	96.322280751662	41313
3	137602	97.42221835206	41454
3	137613	97.422263464513	41595
3	137621	97.422280751662	41736
3	139152	98.52221835206	41877
3	139163	98.522263464513	42018
3	139171	98.522280751662	42159
3	140702	99.62221835206	42300
3	140713	99.622263464513	42441
3	140721	99.622280751662	42582
3	141508	100.17221835206	42723
3	141519	100.172263464513	42864
3	141527	100.172280751662	43005
3	143058	101.27221835206	43146
3	143069	101.272263464513	43287
3	143077	101.272280751662	43428
3	144608	102.37221835206	43569
3	144619	102.372263464513	43710
3	144627	102.372280751662	43851
3	146158	103.47221835206	43992
3	146169	103.472263464513	44133
3	146177	103.472280751662	44274
3	147708	104.57221835206	44415
3	147719	104.572263464513	44556
3	147727	104.572280751662	44697
3	148524	105.122263464513	44838
3	148532	105.122280751662	44979
3	149293	105.67221835206	45120
3	150076	106.22221835206	45261
3	150087	106.222263464513	45402
3	150095	106.222280751662	45543
3	151626	107.32221835206	45684
3	151637	107.322263464513	45825
3	151645	107.322280751662	45966
3	153176	108.42221835206	46107
3	153187	108.422263464513	46248
3	153195	108.422280751662	46389
3	154726	109.52221835206	46530
3	154737	109.522263464513	46671
3	154745	109.522280751662	46812
3	156276	110.62221835206	46953
3	156287	110.622263464513	47094
3	156295	110.622280751662	47235
3	157082	111.17221835206	47376
3	157093	111.172263464513	47517
3	157101	111.172280751662	47658
3	158632	112.27221835206	47799
3	158643	112.272263464513	47940
3	158651	112.272280751662	48081
3	160182	113.37221835206	48222
3	160193	113.372263464513	48363
3	160201	113.372280751662	48504
3	161732	114.47221835206	48645
3	161743	114.472263464513	48786
3	161751	114.472280751662	48927
3	163282	115.57221835206	49068
3	163293	115.572263464513	49209
3	163301	115.572280751662	49350
3	164098	116.122263464513	49491
3	164106	116.122280751662	49632
3	164867	116.67221835206	49773
3	165650	117.22221835206	49914
3	165661	117.222263464513	50055
3	165669	117.222280751662	50196
3	167200	118.32221835206	50337
3	167211	118.322263464513	50478
3	167219	118.322280751662	50619
3	168750	119.42221835206	50760
3	168761	119.422263464513	50901
3	168769	119.422280751662	51042
3	170300	120.52221835206	51183
3	170311	120.522263464513	51324
3	170319	120.522280751662	51465
3	171850	121.62221835206	51606
3	171861	121.622263464513	51747
3	171869	121.622280751662	51888
3	172656	122.17221835206	52029
3	172667	122.172263464513	52170
3	172675	122.172280751662	52311
3	174206	123.27221835206	52452
3	174217	123.272263464513	52593
3	174225	123.272280751662	52734
3	175756	124.37221835206	52875
3	175767	124.372263464513	53016
3	175775	124.372280751662	53157
3	177306	125.47221835206	53298
3	177317	125.472263464513	53439
3	177325	125.472280751662	53580
3	178856	126.57221835206	53721
3	178867	126.572263464513	53862
3	178875	126.572280751662	54003
3	179672	127.122263464513	54144
3	179680	127.122280751662	54285
3	180441	127.67221835206	54426
3	181224	128.22221835206	54567
3	181235	128.222263464513	54708
3	181243	128.222280751662	54849
3	182774	129.32221835206	54990
3	182785	129.322263464513	55131
3	182793	129.322280751662	55272
3	184324	130.42221835206	55413
3	184335	130.422263464513	55554
3	184343	130.422280751662	55695
3	185874	131.52221835206	55836
3	185885	131.522263464513	55977
3	185893	131.522280751662	56118
3	187424	132.62221835206	56259
3	187435	132.622263464513	56400
3	187443	132.622280751662	56541
3	188230	133.17221835206	56682
3	188241	133.172263464513	56823
3	188249	133.172280751662	56964
3	189780	134.27221835206	57105
3	189791	134.272263464513	57246
3	189799	134.272280751662	57387
3	191330	135.37221835206	57528
3	191341	135.372263464513	57669
3	191349	135.372280751662	57810
3	192880	136.47221835206	57951
3	192891	136.472263464513	58092
3	192899	136.472280751662	58233
3	194430	137.57221835206	58374
3	194441	137.572263464513	58515
3	194449	137.572280751662	58656
3	195246	138.122263464513	58797
3	195254	138.122280751662	58938
3	196015	138.67221835206	59079
3	196798	139.22221835206	59220
3	196809	139.222263464513	59361
3	196817	139.222280751662	59502
3	198348	140.32221835206	59643
3	198359	140.322263464513	59784
3	198367	140.322280751662	59925
3	199898	141.42221835206	60066
3	199909	141.422263464513	60207
3	199917	141.422280751662	60348
3	201448	142.52221835206	60489
3	201459	142.522263464513	60630
3	201467	142.522280751662	60771
3	202998	143.62221835206	60912
3	203009	143.622263464513	61053
3	203017	143.622280751662	61194
3	203804	144.17221835206	61335
3	203815	144.172263464513	61476
3	203823	144.172280751662	61617
3	205354	145.27221835206	61758
3	205365	145.272263464513	61899
3	205373	145.272280751662	62040
3	206904	146.37221835206	62181
3	206915	146.372263464513	62322
3	206923	146.372280751662	62463
3	208454	147.47221835206	62604
3	208465	147.472263464513	62745
3	208473	147.472280751662	62886
3	210004	148.57221835206	63027
3	210015	148.572263464513	63168
3	210023	148.572280751662	63309
3	210820	149.122263464513	63450
3	210828	149.122280751662	63591
3	211589	149.67221835206	63732

