version 2
run A-0-20191017-04:08:31-27285
attr configname A
attr datetime 20191017-04:08:31
attr experiment A
attr inifile GwSimV1.ini
attr iterationvars ""
attr iterationvarsf ""
attr measurement ""
attr network NetworkTormV2
attr processid 27285
attr repetition 0
attr replication #0
attr resultdir results
attr runnumber 0
attr seedset 0
param **.mobility.traceFile "\"AllPaths/sPaths/A.movements\""
param **.numNodes 4
param **.application.dataGenerationInterval 1s
param **.application.dataSizeInBytes 10
param **.application.ttl 999999s
param **application.nodesThatGen false
param **application.nodesGenMsg "\"\""
param **application.startMultipleMsg false
param **application.numMultipleMsg 100
param **application.hopsListSize 50
param **.application.endGeneratingMsg 99s
param **.routingLayer "\"RoutingLqeGw\""
param **.routing.maximumCacheSize 5000byte
param **.routing.maximumHopCount 25
param **.routing.useTTL false
param **.routing.waitBFsend 0.5
param **.routing.max_age 999999s
param **.routing.gateway_list "\"\""
param **.routing.actual_gateway "\"\""
param **.routing.gwCheckPeriod 5s
param **.neighboring.resetGPeriod 999s
param **.wirelessIfc.wirelessRange 40m
param **.numNodes 2
param **.application.usedRNG 1
param **.application.dataGenerationInterval 1s
param **.application.dataSizeInBytes 10
param **.application.ttl 999999s
param **application.destinationAddr "\"Wf:00:00:00:00:02\""
param **application.destinationBTAddr "\"Bt:00:00:00:00:02\""
param **application.nodesThatGen true
param **application.nodesGenMsg "\"0\""
param **application.startMultipleMsg true
param **application.numMultipleMsg 100
param **application.hopsListSize 50
param **.application.endGeneratingMsg 999999s
param **.routingLayer "\"RoutingLqeGw\""
param **.routing.maximumCacheSize 5000byte
param **.routing.maximumHopCount 25
param **.routing.useTTL false
param **.routing.waitBFsend 0.5
param **.routing.max_age 999999s
param **.routing.gateway_list "\"\""
param **.routing.actual_gateway "\"\""
param **.routing.gwCheckPeriod 5s
param **.neighboring.antiEntropyInterval 500ms
param **.neighboring.maximumRandomBackoffDuration 1s
param **.neighboring.delayPerDataMsg 0.1
param **neighboring.usedRNG 2
param **.neighboring.GWAddr "\"Wf:00:00:00:00:02\""
param **.neighboring.sendWifiFirst true
param **.neighboring.maxLengthGraph 20
param **.neighboring.max_age 999999s
param **.neighboring.max_absent_time 1s
param **.wirelessIfc.wirelessRange 40m
param **.wirelessIfc.neighbourScanInterval 50ms
param **.wirelessIfc.bandwidthBitRate 100000bps
param **.wirelessIfc.wirelessHeaderSize 32byte
param **.wirelessIfc.minSSI -90
param **.wirelessIfc.limitQueueTime 400ms
param **.wirelessIfc.my_limit_rate 0bps
param **.bluetoothIfc.wirelessRange 40m
param **.bluetoothIfc.neighbourScanInterval 100ms
param **.bluetoothIfc.bandwidthBitRate 100000bps
param **.bluetoothIfc.wirelessHeaderSize 16byte
param **.bluetoothIfc.minSSI -90
param **.mobilityType "\"BonnMotionMobility\""
param **.mobility.traceFile "\"paths/Moves2.movements\""
param **.mobility.is3D false
param **.mobility.nodeId -1

vector 0 NetworkTormV2 neighbourhoodSize:vector ETV
attr source neighbourhoodSize
vector 1 NetworkTormV2 deliveryRatio:vector ETV
attr source sum(totalDataBytesReceived)/sum(totalDataBytesReceivableByAllNodes)
vector 2 NetworkTormV2 dataBytesReceivedSum:vector ETV
attr source sum(dataBytesReceived)
vector 3 NetworkTormV2 totalBytesReceivedSum:vector ETV
attr source sum(totalBytesReceived)
0	13	0.05	3
0	14	0.05	3
0	15	0.05	3
0	16	0.05	3
0	50	0.1	3
0	52	0.1	3
0	54	0.1	3
0	56	0.1	3
0	57	0.1	3
0	58	0.1	3
0	59	0.1	3
0	60	0.1	3
0	105	0.15	3
0	106	0.15	3
0	107	0.15	3
0	108	0.15	3
0	141	0.2	3
0	142	0.2	3
0	143	0.2	3
0	144	0.2	3
0	145	0.2	3
0	146	0.2	3
0	147	0.2	3
0	148	0.2	3
0	189	0.25	3
0	190	0.25	3
0	191	0.25	3
0	192	0.25	3
0	225	0.3	3
0	226	0.3	3
0	227	0.3	3
0	228	0.3	3
0	229	0.3	3
0	230	0.3	3
0	231	0.3	3
0	232	0.3	3
0	273	0.35	3
0	274	0.35	3
0	275	0.35	3
0	276	0.35	3
0	309	0.4	3
0	310	0.4	3
0	311	0.4	3
0	312	0.4	3
0	313	0.4	3
0	314	0.4	3
0	315	0.4	3
0	316	0.4	3
0	357	0.45	3
0	358	0.45	3
0	359	0.45	3
0	360	0.45	3
0	393	0.5	3
0	394	0.5	3
0	395	0.5	3
0	396	0.5	3
0	397	0.5	3
0	398	0.5	3
0	399	0.5	3
0	400	0.5	3
0	441	0.55	3
0	442	0.55	3
0	443	0.55	3
0	444	0.55	3
0	477	0.6	3
0	478	0.6	3
0	479	0.6	3
0	480	0.6	3
0	481	0.6	3
0	482	0.6	3
0	483	0.6	3
0	484	0.6	3
0	525	0.65	3
0	526	0.65	3
0	527	0.65	3
0	528	0.65	3
0	561	0.7	3
0	562	0.7	3
0	563	0.7	3
0	564	0.7	3
0	565	0.7	3
0	566	0.7	3
0	567	0.7	3
0	568	0.7	3
0	609	0.75	3
0	610	0.75	3
0	611	0.75	3
0	612	0.75	3
0	645	0.8	3
0	646	0.8	3
0	647	0.8	3
0	648	0.8	3
0	649	0.8	3
0	650	0.8	3
0	651	0.8	3
0	652	0.8	3
0	693	0.85	3
0	694	0.85	3
0	695	0.85	3
0	696	0.85	3
0	729	0.9	3
0	730	0.9	3
0	731	0.9	3
0	732	0.9	3
0	733	0.9	3
0	734	0.9	3
0	735	0.9	3
0	736	0.9	3
0	777	0.95	3
0	778	0.95	3
0	779	0.95	3
0	780	0.95	3
0	813	1	3
0	814	1	3
0	815	1	3
0	816	1	3
0	817	1	3
0	818	1	3
0	819	1	3
0	820	1	3
0	861	1.05	3
0	862	1.05	3
0	863	1.05	3
0	864	1.05	3
0	901	1.1	3
0	902	1.1	3
0	903	1.1	3
0	904	1.1	3
0	905	1.1	3
0	906	1.1	3
0	907	1.1	3
0	908	1.1	3
0	1157	1.15	3
0	1158	1.15	3
0	1159	1.15	3
0	1160	1.15	3
0	1265	1.2	3
0	1266	1.2	3
0	1267	1.2	3
0	1268	1.2	3
0	1269	1.2	3
0	1270	1.2	3
0	1271	1.2	3
0	1272	1.2	3
0	1313	1.25	3
0	1314	1.25	3
0	1315	1.25	3
0	1316	1.25	3
0	1349	1.3	3
0	1350	1.3	3
0	1351	1.3	3
0	1352	1.3	3
0	1353	1.3	3
0	1354	1.3	3
0	1355	1.3	3
0	1356	1.3	3
0	1397	1.35	3
0	1398	1.35	3
0	1399	1.35	3
0	1400	1.35	3
0	1433	1.4	3
0	1434	1.4	3
0	1435	1.4	3
0	1436	1.4	3
0	1437	1.4	3
0	1438	1.4	3
0	1439	1.4	3
0	1440	1.4	3
0	1481	1.45	3
0	1482	1.45	3
0	1483	1.45	3
0	1484	1.45	3
0	1517	1.5	3
0	1518	1.5	3
0	1519	1.5	3
0	1520	1.5	3
0	1521	1.5	3
0	1522	1.5	3
0	1523	1.5	3
0	1524	1.5	3
0	1565	1.55	3
0	1566	1.55	3
0	1567	1.55	3
0	1568	1.55	3
0	1601	1.6	3
0	1602	1.6	3
0	1603	1.6	3
0	1604	1.6	3
0	1605	1.6	3
0	1606	1.6	3
0	1607	1.6	3
0	1608	1.6	3
0	1649	1.65	3
0	1650	1.65	3
0	1651	1.65	3
0	1652	1.65	3
0	1889	1.7	3
0	1890	1.7	3
0	1891	1.7	3
0	1892	1.7	3
0	1893	1.7	3
0	1894	1.7	3
0	1895	1.7	3
0	1896	1.7	3
0	2009	1.75	3
0	2010	1.75	3
0	2011	1.75	3
0	2012	1.75	3
0	2045	1.8	3
0	2046	1.8	3
0	2047	1.8	3
0	2048	1.8	3
0	2049	1.8	3
0	2050	1.8	3
0	2051	1.8	3
0	2052	1.8	3
0	2093	1.85	3
0	2094	1.85	3
0	2095	1.85	3
0	2096	1.85	3
0	2129	1.9	3
0	2130	1.9	3
0	2131	1.9	3
0	2132	1.9	3
0	2133	1.9	3
0	2134	1.9	3
0	2135	1.9	3
0	2136	1.9	3
0	2177	1.95	3
0	2178	1.95	3
0	2179	1.95	3
0	2180	1.95	3
0	2213	2	3
0	2214	2	3
0	2215	2	3
0	2216	2	3
0	2217	2	3
0	2218	2	3
0	2219	2	3
0	2220	2	3
0	2261	2.05	3
0	2262	2.05	3
0	2263	2.05	3
0	2264	2.05	3
0	2301	2.1	3
0	2302	2.1	3
0	2303	2.1	3
0	2304	2.1	3
0	2305	2.1	3
0	2306	2.1	3
0	2307	2.1	3
0	2308	2.1	3
0	2353	2.15	3
0	2354	2.15	3
0	2355	2.15	3
0	2356	2.15	3
0	2389	2.2	3
0	2390	2.2	3
0	2391	2.2	3
0	2392	2.2	3
0	2393	2.2	3
0	2394	2.2	3
0	2395	2.2	3
0	2396	2.2	3
0	2641	2.25	3
0	2642	2.25	3
0	2643	2.25	3
0	2644	2.25	3
0	2749	2.3	3
0	2750	2.3	3
0	2751	2.3	3
0	2752	2.3	3
0	2753	2.3	3
0	2754	2.3	3
0	2755	2.3	3
0	2756	2.3	3
0	2797	2.35	3
0	2798	2.35	3
0	2799	2.35	3
0	2800	2.35	3
0	2833	2.4	3
0	2834	2.4	3
0	2835	2.4	3
0	2836	2.4	3
0	2837	2.4	3
0	2838	2.4	3
0	2839	2.4	3
0	2840	2.4	3
0	2881	2.45	3
0	2882	2.45	3
0	2883	2.45	3
0	2884	2.45	3
0	2917	2.5	3
0	2918	2.5	3
0	2919	2.5	3
0	2920	2.5	3
0	2921	2.5	3
0	2922	2.5	3
0	2923	2.5	3
0	2924	2.5	3
0	2965	2.55	3
0	2966	2.55	3
0	2967	2.55	3
0	2968	2.55	3
0	3001	2.6	3
0	3002	2.6	3
0	3003	2.6	3
0	3004	2.6	3
0	3005	2.6	3
0	3006	2.6	3
0	3007	2.6	3
0	3008	2.6	3
0	3049	2.65	3
0	3050	2.65	3
0	3051	2.65	3
0	3052	2.65	3
0	3085	2.7	3
0	3086	2.7	3
0	3087	2.7	3
0	3088	2.7	3
0	3089	2.7	3
0	3090	2.7	3
0	3091	2.7	3
0	3092	2.7	3
0	3133	2.75	3
0	3134	2.75	3
0	3135	2.75	3
0	3136	2.75	3
0	3373	2.8	3
0	3374	2.8	3
0	3375	2.8	3
0	3376	2.8	3
0	3377	2.8	3
0	3378	2.8	3
0	3379	2.8	3
0	3380	2.8	3
0	3493	2.85	3
0	3494	2.85	3
0	3495	2.85	3
0	3496	2.85	3
0	3529	2.9	3
0	3530	2.9	3
0	3531	2.9	3
0	3532	2.9	3
0	3533	2.9	3
0	3534	2.9	3
0	3535	2.9	3
0	3536	2.9	3
0	3577	2.95	3
0	3578	2.95	3
0	3579	2.95	3
0	3580	2.95	3
0	3613	3	3
0	3614	3	3
0	3615	3	3
0	3616	3	3
0	3617	3	3
0	3618	3	3
0	3619	3	3
0	3620	3	3
0	3661	3.05	3
0	3662	3.05	3
0	3663	3.05	3
0	3664	3.05	3
0	3701	3.1	3
0	3702	3.1	3
0	3703	3.1	3
0	3704	3.1	3
0	3705	3.1	3
0	3706	3.1	3
0	3707	3.1	3
0	3708	3.1	3
0	3753	3.15	3
0	3754	3.15	3
0	3755	3.15	3
0	3756	3.15	3
0	3789	3.2	3
0	3790	3.2	3
0	3791	3.2	3
0	3792	3.2	3
0	3793	3.2	3
0	3794	3.2	3
0	3795	3.2	3
0	3796	3.2	3
0	3837	3.25	3
0	3838	3.25	3
0	3839	3.25	3
0	3840	3.25	3
0	3873	3.3	3
0	3874	3.3	3
0	3875	3.3	3
0	3876	3.3	3
0	3877	3.3	3
0	3878	3.3	3
0	3879	3.3	3
0	3880	3.3	3
0	4125	3.35	3
0	4126	3.35	3
0	4127	3.35	3
0	4128	3.35	3
0	4233	3.4	3
0	4234	3.4	3
0	4235	3.4	3
0	4236	3.4	3
0	4237	3.4	3
0	4238	3.4	3
0	4239	3.4	3
0	4240	3.4	3
0	4281	3.45	3
0	4282	3.45	3
0	4283	3.45	3
0	4284	3.45	3
0	4317	3.5	3
0	4318	3.5	3
0	4319	3.5	3
0	4320	3.5	3
0	4321	3.5	3
0	4322	3.5	3
0	4323	3.5	3
0	4324	3.5	3
0	4365	3.55	3
0	4366	3.55	3
0	4367	3.55	3
0	4368	3.55	3
0	4401	3.6	3
0	4402	3.6	3
0	4403	3.6	3
0	4404	3.6	3
0	4405	3.6	3
0	4406	3.6	3
0	4407	3.6	3
0	4408	3.6	3
0	4449	3.65	3
0	4450	3.65	3
0	4451	3.65	3
0	4452	3.65	3
0	4485	3.7	3
0	4486	3.7	3
0	4487	3.7	3
0	4488	3.7	3
0	4489	3.7	3
0	4490	3.7	3
0	4491	3.7	3
0	4492	3.7	3
0	4533	3.75	3
0	4534	3.75	3
0	4535	3.75	3
0	4536	3.75	3
0	4569	3.8	3
0	4570	3.8	3
0	4571	3.8	3
0	4572	3.8	3
0	4573	3.8	3
0	4574	3.8	3
0	4575	3.8	3
0	4576	3.8	3
0	4617	3.85	3
0	4618	3.85	3
0	4619	3.85	3
0	4620	3.85	3
0	4857	3.9	3
0	4858	3.9	3
0	4859	3.9	3
0	4860	3.9	3
0	4861	3.9	3
0	4862	3.9	3
0	4863	3.9	3
0	4864	3.9	3
0	4977	3.95	3
0	4978	3.95	3
0	4979	3.95	3
0	4980	3.95	3
0	5013	4	3
0	5014	4	3
0	5015	4	3
0	5016	4	3
0	5017	4	3
0	5018	4	3
0	5019	4	3
0	5020	4	3
0	5061	4.05	3
0	5062	4.05	3
0	5063	4.05	3
0	5064	4.05	3
0	5101	4.1	3
0	5102	4.1	3
0	5103	4.1	3
0	5104	4.1	3
0	5105	4.1	3
0	5106	4.1	3
0	5107	4.1	3
0	5108	4.1	3
0	5153	4.15	3
0	5154	4.15	3
0	5155	4.15	3
0	5156	4.15	3
0	5189	4.2	3
0	5190	4.2	3
0	5191	4.2	3
0	5192	4.2	3
0	5193	4.2	3
0	5194	4.2	3
0	5195	4.2	3
0	5196	4.2	3
0	5237	4.25	3
0	5238	4.25	3
0	5239	4.25	3
0	5240	4.25	3
0	5273	4.3	3
0	5274	4.3	3
0	5275	4.3	3
0	5276	4.3	3
0	5277	4.3	3
0	5278	4.3	3
0	5279	4.3	3
0	5280	4.3	3
0	5321	4.35	3
0	5322	4.35	3
0	5323	4.35	3
0	5324	4.35	3
0	5357	4.4	3
0	5358	4.4	3
0	5359	4.4	3
0	5360	4.4	3
0	5361	4.4	3
0	5362	4.4	3
0	5363	4.4	3
0	5364	4.4	3
0	5609	4.45	3
0	5610	4.45	3
0	5611	4.45	3
0	5612	4.45	3
0	5717	4.5	3
0	5718	4.5	3
0	5719	4.5	3
0	5720	4.5	3
0	5721	4.5	3
0	5722	4.5	3
0	5723	4.5	3
0	5724	4.5	3
0	5765	4.55	3
0	5766	4.55	3
0	5767	4.55	3
0	5768	4.55	3
0	5801	4.6	3
0	5802	4.6	3
0	5803	4.6	3
0	5804	4.6	3
0	5805	4.6	3
0	5806	4.6	3
0	5807	4.6	3
0	5808	4.6	3
0	5849	4.65	3
0	5850	4.65	3
0	5851	4.65	3
0	5852	4.65	3
0	5885	4.7	3
0	5886	4.7	3
0	5887	4.7	3
0	5888	4.7	3
0	5889	4.7	3
0	5890	4.7	3
0	5891	4.7	3
0	5892	4.7	3
0	5933	4.75	3
0	5934	4.75	3
0	5935	4.75	3
0	5936	4.75	3
0	5969	4.8	3
0	5970	4.8	3
0	5971	4.8	3
0	5972	4.8	3
0	5973	4.8	3
0	5974	4.8	3
0	5975	4.8	3
0	5976	4.8	3
0	6017	4.85	3
0	6018	4.85	3
0	6019	4.85	3
0	6020	4.85	3
0	6053	4.9	3
0	6054	4.9	3
0	6055	4.9	3
0	6056	4.9	3
0	6057	4.9	3
0	6058	4.9	3
0	6059	4.9	3
0	6060	4.9	3
0	6101	4.95	3
0	6102	4.95	3
0	6103	4.95	3
0	6104	4.95	3
0	6345	5	3
0	6346	5	3
0	6347	5	3
0	6348	5	3
0	6349	5	3
0	6350	5	3
0	6351	5	3
0	6352	5	3
0	6465	5.05	3
0	6466	5.05	3
0	6467	5.05	3
0	6468	5.05	3
0	6505	5.1	3
0	6506	5.1	3
0	6507	5.1	3
0	6508	5.1	3
0	6509	5.1	3
0	6510	5.1	3
0	6511	5.1	3
0	6512	5.1	3
0	6557	5.15	3
0	6558	5.15	3
0	6559	5.15	3
0	6560	5.15	3
0	6593	5.2	3
0	6594	5.2	3
0	6595	5.2	3
0	6596	5.2	3
0	6597	5.2	3
0	6598	5.2	3
0	6599	5.2	3
0	6600	5.2	3
0	6641	5.25	3
0	6642	5.25	3
0	6643	5.25	3
0	6644	5.25	3
0	6677	5.3	3
0	6678	5.3	3
0	6679	5.3	3
0	6680	5.3	3
0	6681	5.3	3
0	6682	5.3	3
0	6683	5.3	3
0	6684	5.3	3
0	6725	5.35	3
0	6726	5.35	3
0	6727	5.35	3
0	6728	5.35	3
0	6761	5.4	3
0	6762	5.4	3
0	6763	5.4	3
0	6764	5.4	3
0	6765	5.4	3
0	6766	5.4	3
0	6767	5.4	3
0	6768	5.4	3
0	6809	5.45	3
0	6810	5.45	3
0	6811	5.45	3
0	6812	5.45	3
0	6849	5.5	3
0	6850	5.5	3
0	6851	5.5	3
0	6852	5.5	3
0	6853	5.5	3
0	6854	5.5	3
0	6855	5.5	3
0	6856	5.5	3
0	7101	5.55	3
0	7102	5.55	3
0	7103	5.55	3
0	7104	5.55	3
0	7209	5.6	3
0	7210	5.6	3
0	7211	5.6	3
0	7212	5.6	3
0	7213	5.6	3
0	7214	5.6	3
0	7215	5.6	3
0	7216	5.6	3
0	7257	5.65	3
0	7258	5.65	3
0	7259	5.65	3
0	7260	5.65	3
0	7293	5.7	3
0	7294	5.7	3
0	7295	5.7	3
0	7296	5.7	3
0	7297	5.7	3
0	7298	5.7	3
0	7299	5.7	3
0	7300	5.7	3
0	7341	5.75	3
0	7342	5.75	3
0	7343	5.75	3
0	7344	5.75	3
0	7377	5.8	3
0	7378	5.8	3
0	7379	5.8	3
0	7380	5.8	3
0	7381	5.8	3
0	7382	5.8	3
0	7383	5.8	3
0	7384	5.8	3
0	7425	5.85	3
0	7426	5.85	3
0	7427	5.85	3
0	7428	5.85	3
0	7461	5.9	3
0	7462	5.9	3
0	7463	5.9	3
0	7464	5.9	3
0	7465	5.9	3
0	7466	5.9	3
0	7467	5.9	3
0	7468	5.9	3
0	7509	5.95	3
0	7510	5.95	3
0	7511	5.95	3
0	7512	5.95	3
0	7549	6	3
0	7550	6	3
0	7551	6	3
0	7552	6	3
0	7553	6	3
0	7554	6	3
0	7555	6	3
0	7556	6	3
0	7597	6.05	3
0	7598	6.05	3
0	7599	6.05	3
0	7600	6.05	3
0	7841	6.1	3
0	7842	6.1	3
0	7843	6.1	3
0	7844	6.1	3
0	7845	6.1	3
0	7846	6.1	3
0	7847	6.1	3
0	7848	6.1	3
0	7965	6.15	3
0	7966	6.15	3
0	7967	6.15	3
0	7968	6.15	3
0	8001	6.2	3
0	8002	6.2	3
0	8003	6.2	3
0	8004	6.2	3
0	8005	6.2	3
0	8006	6.2	3
0	8007	6.2	3
0	8008	6.2	3
0	8049	6.25	3
0	8050	6.25	3
0	8051	6.25	3
0	8052	6.25	3
0	8085	6.3	3
0	8086	6.3	3
0	8087	6.3	3
0	8088	6.3	3
0	8089	6.3	3
0	8090	6.3	3
0	8091	6.3	3
0	8092	6.3	3
0	8133	6.35	3
0	8134	6.35	3
0	8135	6.35	3
0	8136	6.35	3
0	8169	6.4	3
0	8170	6.4	3
0	8171	6.4	3
0	8172	6.4	3
0	8173	6.4	3
0	8174	6.4	3
0	8175	6.4	3
0	8176	6.4	3
0	8217	6.45	3
0	8218	6.45	3
0	8219	6.45	3
0	8220	6.45	3
0	8257	6.5	3
0	8258	6.5	3
0	8259	6.5	3
0	8260	6.5	3
0	8261	6.5	3
0	8262	6.5	3
0	8263	6.5	3
0	8264	6.5	3
0	8305	6.55	3
0	8306	6.55	3
0	8307	6.55	3
0	8308	6.55	3
0	8341	6.6	3
0	8342	6.6	3
0	8343	6.6	3
0	8344	6.6	3
0	8345	6.6	3
0	8346	6.6	3
0	8347	6.6	3
0	8348	6.6	3
0	8607	6.65	3
0	8608	6.65	3
0	8609	6.65	3
0	8610	6.65	3
0	8874	6.7	3
0	8875	6.7	3
0	8876	6.7	3
0	8877	6.7	3
0	8878	6.7	3
0	8879	6.7	3
0	8880	6.7	3
0	8881	6.7	3
0	9115	6.75	3
0	9116	6.75	3
0	9117	6.75	3
0	9118	6.75	3
0	9205	6.8	3
0	9206	6.8	3
0	9207	6.8	3
0	9208	6.8	3
0	9209	6.8	3
0	9210	6.8	3
0	9211	6.8	3
0	9212	6.8	3
0	9253	6.85	3
0	9254	6.85	3
0	9255	6.85	3
0	9256	6.85	3
0	9289	6.9	3
0	9290	6.9	3
0	9291	6.9	3
0	9292	6.9	3
0	9293	6.9	3
0	9294	6.9	3
0	9295	6.9	3
0	9296	6.9	3
0	9337	6.95	3
0	9338	6.95	3
0	9339	6.95	3
0	9340	6.95	3
0	9377	7	3
0	9378	7	3
0	9379	7	3
0	9380	7	3
0	9381	7	3
0	9382	7	3
0	9383	7	3
0	9384	7	3
0	9425	7.05	3
0	9426	7.05	3
0	9427	7.05	3
0	9428	7.05	3
0	9465	7.1	3
0	9466	7.1	3
0	9467	7.1	3
0	9468	7.1	3
0	9469	7.1	3
0	9470	7.1	3
0	9471	7.1	3
0	9472	7.1	3
0	9518	7.15	3
0	9519	7.15	3
0	9520	7.15	3
0	9521	7.15	3
0	9760	7.2	3
0	9761	7.2	3
0	9762	7.2	3
0	9763	7.2	3
0	9764	7.2	3
0	9765	7.2	3
0	9766	7.2	3
0	9767	7.2	3
0	9941	7.25	3
0	9942	7.25	3
0	9943	7.25	3
0	9944	7.25	3
0	9977	7.3	3
0	9978	7.3	3
0	9979	7.3	3
0	9980	7.3	3
0	9981	7.3	3
0	9982	7.3	3
0	9983	7.3	3
0	9984	7.3	3
0	10025	7.35	3
0	10026	7.35	3
0	10027	7.35	3
0	10028	7.35	3
0	10061	7.4	3
0	10062	7.4	3
0	10063	7.4	3
0	10064	7.4	3
0	10065	7.4	3
0	10066	7.4	3
0	10067	7.4	3
0	10068	7.4	3
0	10109	7.45	3
0	10110	7.45	3
0	10111	7.45	3
0	10112	7.45	3
0	10146	7.5	3
0	10147	7.5	3
0	10148	7.5	3
0	10149	7.5	3
0	10150	7.5	3
0	10151	7.5	3
0	10152	7.5	3
0	10153	7.5	3
0	10194	7.55	3
0	10195	7.55	3
0	10196	7.55	3
0	10197	7.55	3
0	10230	7.6	3
0	10231	7.6	3
0	10232	7.6	3
0	10233	7.6	3
0	10234	7.6	3
0	10235	7.6	3
0	10236	7.6	3
0	10237	7.6	3
0	10278	7.65	3
0	10279	7.65	3
0	10280	7.65	3
0	10281	7.65	3
0	10314	7.7	3
0	10315	7.7	3
0	10316	7.7	3
0	10317	7.7	3
0	10318	7.7	3
0	10319	7.7	3
0	10320	7.7	3
0	10321	7.7	3
0	10566	7.75	3
0	10567	7.75	3
0	10568	7.75	3
0	10569	7.75	3
0	10674	7.8	3
0	10675	7.8	3
0	10676	7.8	3
0	10677	7.8	3
0	10678	7.8	3
0	10679	7.8	3
0	10680	7.8	3
0	10681	7.8	3
0	10722	7.85	3
0	10723	7.85	3
0	10724	7.85	3
0	10725	7.85	3
0	10758	7.9	3
0	10759	7.9	3
0	10760	7.9	3
0	10761	7.9	3
0	10762	7.9	3
0	10763	7.9	3
0	10764	7.9	3
0	10765	7.9	3
0	10806	7.95	3
0	10807	7.95	3
0	10808	7.95	3
0	10809	7.95	3
0	10842	8	3
0	10843	8	3
0	10844	8	3
0	10845	8	3
0	10846	8	3
0	10847	8	3
0	10848	8	3
0	10849	8	3
0	10890	8.05	3
0	10891	8.05	3
0	10892	8.05	3
0	10893	8.05	3
0	10930	8.1	3
0	10931	8.1	3
0	10932	8.1	3
0	10933	8.1	3
0	10934	8.1	3
0	10935	8.1	3
0	10936	8.1	3
0	10937	8.1	3
0	10983	8.15	3
0	10984	8.15	3
0	10985	8.15	3
0	10986	8.15	3
0	11019	8.2	3
0	11020	8.2	3
0	11021	8.2	3
0	11022	8.2	3
0	11023	8.2	3
0	11024	8.2	3
0	11025	8.2	3
0	11026	8.2	3
0	11067	8.25	3
0	11068	8.25	3
0	11069	8.25	3
0	11070	8.25	3
0	11309	8.3	3
0	11310	8.3	3
0	11311	8.3	3
0	11312	8.3	3
0	11313	8.3	3
0	11314	8.3	3
0	11315	8.3	3
0	11316	8.3	3
0	11490	8.35	3
0	11491	8.35	3
0	11492	8.35	3
0	11493	8.35	3
0	11526	8.4	3
0	11527	8.4	3
0	11528	8.4	3
0	11529	8.4	3
0	11530	8.4	3
0	11531	8.4	3
0	11532	8.4	3
0	11533	8.4	3
0	11574	8.45	3
0	11575	8.45	3
0	11576	8.45	3
0	11577	8.45	3
0	11610	8.5	3
0	11611	8.5	3
0	11612	8.5	3
0	11613	8.5	3
0	11614	8.5	3
0	11615	8.5	3
0	11616	8.5	3
0	11617	8.5	3
0	11658	8.55	3
0	11659	8.55	3
0	11660	8.55	3
0	11661	8.55	3
0	11694	8.6	3
0	11695	8.6	3
0	11696	8.6	3
0	11697	8.6	3
0	11698	8.6	3
0	11699	8.6	3
0	11700	8.6	3
0	11701	8.6	3
0	11742	8.65	3
0	11743	8.65	3
0	11744	8.65	3
0	11745	8.65	3
0	11778	8.7	3
0	11779	8.7	3
0	11780	8.7	3
0	11781	8.7	3
0	11782	8.7	3
0	11783	8.7	3
0	11784	8.7	3
0	11785	8.7	3
0	11826	8.75	3
0	11827	8.75	3
0	11828	8.75	3
0	11829	8.75	3
0	11862	8.8	3
0	11863	8.8	3
0	11864	8.8	3
0	11865	8.8	3
0	11866	8.8	3
0	11867	8.8	3
0	11868	8.8	3
0	11869	8.8	3
0	12114	8.85	3
0	12115	8.85	3
0	12116	8.85	3
0	12117	8.85	3
0	12222	8.9	3
0	12223	8.9	3
0	12224	8.9	3
0	12225	8.9	3
0	12226	8.9	3
0	12227	8.9	3
0	12228	8.9	3
0	12229	8.9	3
0	12270	8.95	3
0	12271	8.95	3
0	12272	8.95	3
0	12273	8.95	3
0	12306	9	3
0	12307	9	3
0	12308	9	3
0	12309	9	3
0	12310	9	3
0	12311	9	3
0	12312	9	3
0	12313	9	3
0	12354	9.05	3
0	12355	9.05	3
0	12356	9.05	3
0	12357	9.05	3
0	12394	9.1	3
0	12395	9.1	3
0	12396	9.1	3
0	12397	9.1	3
0	12398	9.1	3
0	12399	9.1	3
0	12400	9.1	3
0	12401	9.1	3
0	12447	9.15	3
0	12448	9.15	3
0	12449	9.15	3
0	12450	9.15	3
0	12483	9.2	3
0	12484	9.2	3
0	12485	9.2	3
0	12486	9.2	3
0	12487	9.2	3
0	12488	9.2	3
0	12489	9.2	3
0	12490	9.2	3
0	12531	9.25	3
0	12532	9.25	3
0	12533	9.25	3
0	12534	9.25	3
0	12567	9.3	3
0	12568	9.3	3
0	12569	9.3	3
0	12570	9.3	3
0	12571	9.3	3
0	12572	9.3	3
0	12573	9.3	3
0	12574	9.3	3
0	12615	9.35	3
0	12616	9.35	3
0	12617	9.35	3
0	12618	9.35	3
0	12857	9.4	3
0	12858	9.4	3
0	12859	9.4	3
0	12860	9.4	3
0	12861	9.4	3
0	12862	9.4	3
0	12863	9.4	3
0	12864	9.4	3
0	13038	9.45	3
0	13039	9.45	3
0	13040	9.45	3
0	13041	9.45	3
0	13074	9.5	3
0	13075	9.5	3
0	13076	9.5	3
0	13077	9.5	3
0	13078	9.5	3
0	13079	9.5	3
0	13080	9.5	3
0	13081	9.5	3
0	13122	9.55	3
0	13123	9.55	3
0	13124	9.55	3
0	13125	9.55	3
0	13158	9.6	3
0	13159	9.6	3
0	13160	9.6	3
0	13161	9.6	3
0	13162	9.6	3
0	13163	9.6	3
0	13164	9.6	3
0	13165	9.6	3
0	13206	9.65	3
0	13207	9.65	3
0	13208	9.65	3
0	13209	9.65	3
0	13242	9.7	3
0	13243	9.7	3
0	13244	9.7	3
0	13245	9.7	3
0	13246	9.7	3
0	13247	9.7	3
0	13248	9.7	3
0	13249	9.7	3
0	13290	9.75	3
0	13291	9.75	3
0	13292	9.75	3
0	13293	9.75	3
0	13326	9.8	3
0	13327	9.8	3
0	13328	9.8	3
0	13329	9.8	3
0	13330	9.8	3
0	13331	9.8	3
0	13332	9.8	3
0	13333	9.8	3
0	13374	9.85	3
0	13375	9.85	3
0	13376	9.85	3
0	13377	9.85	3
0	13410	9.9	3
0	13411	9.9	3
0	13412	9.9	3
0	13413	9.9	3
0	13414	9.9	3
0	13415	9.9	3
0	13416	9.9	3
0	13417	9.9	3
0	13662	9.95	3
0	13663	9.95	3
0	13664	9.95	3
0	13665	9.95	3
0	13770	10	3
0	13771	10	3
0	13772	10	3
0	13773	10	3
0	13774	10	3
0	13775	10	3
0	13776	10	3
0	13777	10	3
0	13818	10.05	3
0	13819	10.05	3
0	13820	10.05	3
0	13821	10.05	3
0	13858	10.1	3
0	13859	10.1	3
0	13860	10.1	3
0	13861	10.1	3
0	13862	10.1	3
0	13863	10.1	3
0	13864	10.1	3
0	13865	10.1	3
0	13911	10.15	3
0	13912	10.15	3
0	13913	10.15	3
0	13914	10.15	3
0	13947	10.2	3
0	13948	10.2	3
0	13949	10.2	3
0	13950	10.2	3
0	13951	10.2	3
0	13952	10.2	3
0	13953	10.2	3
0	13954	10.2	3
0	13995	10.25	3
0	13996	10.25	3
0	13997	10.25	3
0	13998	10.25	3
0	14031	10.3	3
0	14032	10.3	3
0	14033	10.3	3
0	14034	10.3	3
0	14035	10.3	3
0	14036	10.3	3
0	14037	10.3	3
0	14038	10.3	3
0	14079	10.35	3
0	14080	10.35	3
0	14081	10.35	3
0	14082	10.35	3
0	14115	10.4	3
0	14116	10.4	3
0	14117	10.4	3
0	14118	10.4	3
0	14119	10.4	3
0	14120	10.4	3
0	14121	10.4	3
0	14122	10.4	3
0	14163	10.45	3
0	14164	10.45	3
0	14165	10.45	3
0	14166	10.45	3
0	14405	10.5	3
0	14406	10.5	3
0	14407	10.5	3
0	14408	10.5	3
0	14409	10.5	3
0	14410	10.5	3
0	14411	10.5	3
0	14412	10.5	3
0	14586	10.55	3
0	14587	10.55	3
0	14588	10.55	3
0	14589	10.55	3
0	14622	10.6	3
0	14623	10.6	3
0	14624	10.6	3
0	14625	10.6	3
0	14626	10.6	3
0	14627	10.6	3
0	14628	10.6	3
0	14629	10.6	3
0	14670	10.65	3
0	14671	10.65	3
0	14672	10.65	3
0	14673	10.65	3
0	14706	10.7	3
0	14707	10.7	3
0	14708	10.7	3
0	14709	10.7	3
0	14710	10.7	3
0	14711	10.7	3
0	14712	10.7	3
0	14713	10.7	3
0	14754	10.75	3
0	14755	10.75	3
0	14756	10.75	3
0	14757	10.75	3
0	14790	10.8	3
0	14791	10.8	3
0	14792	10.8	3
0	14793	10.8	3
0	14794	10.8	3
0	14795	10.8	3
0	14796	10.8	3
0	14797	10.8	3
0	14838	10.85	3
0	14839	10.85	3
0	14840	10.85	3
0	14841	10.85	3
0	14874	10.9	3
0	14875	10.9	3
0	14876	10.9	3
0	14877	10.9	3
0	14878	10.9	3
0	14879	10.9	3
0	14880	10.9	3
0	14881	10.9	3
0	14922	10.95	3
0	14923	10.95	3
0	14924	10.95	3
0	14925	10.95	3
0	14958	11	3
0	14959	11	3
0	14960	11	3
0	14961	11	3
0	14962	11	3
0	14963	11	3
0	14964	11	3
0	14965	11	3
0	15210	11.05	3
0	15211	11.05	3
0	15212	11.05	3
0	15213	11.05	3
0	15322	11.1	3
0	15323	11.1	3
0	15324	11.1	3
0	15325	11.1	3
0	15326	11.1	3
0	15327	11.1	3
0	15328	11.1	3
0	15329	11.1	3
0	15375	11.15	3
0	15376	11.15	3
0	15377	11.15	3
0	15378	11.15	3
0	15411	11.2	3
0	15412	11.2	3
0	15413	11.2	3
0	15414	11.2	3
0	15415	11.2	3
0	15416	11.2	3
0	15417	11.2	3
0	15418	11.2	3
0	15459	11.25	3
0	15460	11.25	3
0	15461	11.25	3
0	15462	11.25	3
0	15495	11.3	3
0	15496	11.3	3
0	15497	11.3	3
0	15498	11.3	3
0	15499	11.3	3
0	15500	11.3	3
0	15501	11.3	3
0	15502	11.3	3
0	15543	11.35	3
0	15544	11.35	3
0	15545	11.35	3
0	15546	11.35	3
0	15579	11.4	3
0	15580	11.4	3
0	15581	11.4	3
0	15582	11.4	3
0	15583	11.4	3
0	15584	11.4	3
0	15585	11.4	3
0	15586	11.4	3
0	15627	11.45	3
0	15628	11.45	3
0	15629	11.45	3
0	15630	11.45	3
0	15663	11.5	3
0	15664	11.5	3
0	15665	11.5	3
0	15666	11.5	3
0	15667	11.5	3
0	15668	11.5	3
0	15669	11.5	3
0	15670	11.5	3
0	15711	11.55	3
0	15712	11.55	3
0	15713	11.55	3
0	15714	11.55	3
0	15953	11.6	3
0	15954	11.6	3
0	15955	11.6	3
0	15956	11.6	3
0	15957	11.6	3
0	15958	11.6	3
0	15959	11.6	3
0	15960	11.6	3
0	16134	11.65	3
0	16135	11.65	3
0	16136	11.65	3
0	16137	11.65	3
0	16170	11.7	3
0	16171	11.7	3
0	16172	11.7	3
0	16173	11.7	3
0	16174	11.7	3
0	16175	11.7	3
0	16176	11.7	3
0	16177	11.7	3
0	16218	11.75	3
0	16219	11.75	3
0	16220	11.75	3
0	16221	11.75	3
0	16254	11.8	3
0	16255	11.8	3
0	16256	11.8	3
0	16257	11.8	3
0	16258	11.8	3
0	16259	11.8	3
0	16260	11.8	3
0	16261	11.8	3
0	16302	11.85	3
0	16303	11.85	3
0	16304	11.85	3
0	16305	11.85	3
0	16338	11.9	3
0	16339	11.9	3
0	16340	11.9	3
0	16341	11.9	3
0	16342	11.9	3
0	16343	11.9	3
0	16344	11.9	3
0	16345	11.9	3
0	16386	11.95	3
0	16387	11.95	3
0	16388	11.95	3
0	16389	11.95	3
0	16425	12	3
0	16426	12	3
0	16427	12	3
0	16428	12	3
0	16429	12	3
0	16430	12	3
0	16431	12	3
0	16432	12	3
0	16473	12.05	3
0	16474	12.05	3
0	16475	12.05	3
0	16476	12.05	3
0	16513	12.1	3
0	16514	12.1	3
0	16515	12.1	3
0	16516	12.1	3
0	16517	12.1	3
0	16518	12.1	3
0	16519	12.1	3
0	16520	12.1	3
0	16772	12.15	3
0	16773	12.15	3
0	16774	12.15	3
0	16775	12.15	3
0	16941	12.2	3
0	16942	12.2	3
0	16943	12.2	3
0	16944	12.2	3
0	16945	12.2	3
0	16946	12.2	3
0	16947	12.2	3
0	16948	12.2	3
0	16989	12.25	3
0	16990	12.25	3
0	16991	12.25	3
0	16992	12.25	3
0	17025	12.3	3
0	17026	12.3	3
0	17027	12.3	3
0	17028	12.3	3
0	17029	12.3	3
0	17030	12.3	3
0	17031	12.3	3
0	17032	12.3	3
0	17073	12.35	3
0	17074	12.35	3
0	17075	12.35	3
0	17076	12.35	3
0	17109	12.4	3
0	17110	12.4	3
0	17111	12.4	3
0	17112	12.4	3
0	17113	12.4	3
0	17114	12.4	3
0	17115	12.4	3
0	17116	12.4	3
0	17157	12.45	3
0	17158	12.45	3
0	17159	12.45	3
0	17160	12.45	3
0	17194	12.5	3
0	17195	12.5	3
0	17196	12.5	3
0	17197	12.5	3
0	17198	12.5	3
0	17199	12.5	3
0	17200	12.5	3
0	17201	12.5	3
0	17242	12.55	3
0	17243	12.55	3
0	17244	12.55	3
0	17245	12.55	3
0	17278	12.6	3
0	17279	12.6	3
0	17280	12.6	3
0	17281	12.6	3
0	17282	12.6	3
0	17283	12.6	3
0	17284	12.6	3
0	17285	12.6	3
0	17326	12.65	3
0	17327	12.65	3
0	17328	12.65	3
0	17329	12.65	3
0	17566	12.7	3
0	17567	12.7	3
0	17568	12.7	3
0	17569	12.7	3
0	17570	12.7	3
0	17571	12.7	3
0	17572	12.7	3
0	17573	12.7	3
0	17686	12.75	3
0	17687	12.75	3
0	17688	12.75	3
0	17689	12.75	3
0	17722	12.8	3
0	17723	12.8	3
0	17724	12.8	3
0	17725	12.8	3
0	17726	12.8	3
0	17727	12.8	3
0	17728	12.8	3
0	17729	12.8	3
0	17770	12.85	3
0	17771	12.85	3
0	17772	12.85	3
0	17773	12.85	3
0	17806	12.9	3
0	17807	12.9	3
0	17808	12.9	3
0	17809	12.9	3
0	17810	12.9	3
0	17811	12.9	3
0	17812	12.9	3
0	17813	12.9	3
0	17854	12.95	3
0	17855	12.95	3
0	17856	12.95	3
0	17857	12.95	3
0	17893	13	3
0	17894	13	3
0	17895	13	3
0	17896	13	3
0	17897	13	3
0	17898	13	3
0	17899	13	3
0	17900	13	3
0	17941	13.05	3
0	17942	13.05	3
0	17943	13.05	3
0	17944	13.05	3
0	17981	13.1	3
0	17982	13.1	3
0	17983	13.1	3
0	17984	13.1	3
0	17985	13.1	3
0	17986	13.1	3
0	17987	13.1	3
0	17988	13.1	3
0	18034	13.15	3
0	18035	13.15	3
0	18036	13.15	3
0	18037	13.15	3
0	18070	13.2	3
0	18071	13.2	3
0	18072	13.2	3
0	18073	13.2	3
0	18074	13.2	3
0	18075	13.2	3
0	18076	13.2	3
0	18077	13.2	3
0	18324	13.25	3
0	18325	13.25	3
0	18326	13.25	3
0	18327	13.25	3
0	18493	13.3	3
0	18494	13.3	3
0	18495	13.3	3
0	18496	13.3	3
0	18497	13.3	3
0	18498	13.3	3
0	18499	13.3	3
0	18500	13.3	3
0	18541	13.35	3
0	18542	13.35	3
0	18543	13.35	3
0	18544	13.35	3
0	18577	13.4	3
0	18578	13.4	3
0	18579	13.4	3
0	18580	13.4	3
0	18581	13.4	3
0	18582	13.4	3
0	18583	13.4	3
0	18584	13.4	3
0	18625	13.45	3
0	18626	13.45	3
0	18627	13.45	3
0	18628	13.45	3
0	18662	13.5	3
0	18663	13.5	3
0	18664	13.5	3
0	18665	13.5	3
0	18666	13.5	3
0	18667	13.5	3
0	18668	13.5	3
0	18669	13.5	3
0	18710	13.55	3
0	18711	13.55	3
0	18712	13.55	3
0	18713	13.55	3
0	18746	13.6	3
0	18747	13.6	3
0	18748	13.6	3
0	18749	13.6	3
0	18750	13.6	3
0	18751	13.6	3
0	18752	13.6	3
0	18753	13.6	3
0	18794	13.65	3
0	18795	13.65	3
0	18796	13.65	3
0	18797	13.65	3
0	18830	13.7	3
0	18831	13.7	3
0	18832	13.7	3
0	18833	13.7	3
0	18834	13.7	3
0	18835	13.7	3
0	18836	13.7	3
0	18837	13.7	3
0	18878	13.75	3
0	18879	13.75	3
0	18880	13.75	3
0	18881	13.75	3
0	19118	13.8	3
0	19119	13.8	3
0	19120	13.8	3
0	19121	13.8	3
0	19122	13.8	3
0	19123	13.8	3
0	19124	13.8	3
0	19125	13.8	3
0	19238	13.85	3
0	19239	13.85	3
0	19240	13.85	3
0	19241	13.85	3
0	19274	13.9	3
0	19275	13.9	3
0	19276	13.9	3
0	19277	13.9	3
0	19278	13.9	3
0	19279	13.9	3
0	19280	13.9	3
0	19281	13.9	3
0	19322	13.95	3
0	19323	13.95	3
0	19324	13.95	3
0	19325	13.95	3
0	19361	14	3
0	19362	14	3
0	19363	14	3
0	19364	14	3
0	19365	14	3
0	19366	14	3
0	19367	14	3
0	19368	14	3
0	19409	14.05	3
0	19410	14.05	3
0	19411	14.05	3
0	19412	14.05	3
0	19449	14.1	3
0	19450	14.1	3
0	19451	14.1	3
0	19452	14.1	3
0	19453	14.1	3
0	19454	14.1	3
0	19455	14.1	3
0	19456	14.1	3
0	19502	14.15	3
0	19503	14.15	3
0	19504	14.15	3
0	19505	14.15	3
0	19538	14.2	3
0	19539	14.2	3
0	19540	14.2	3
0	19541	14.2	3
0	19542	14.2	3
0	19543	14.2	3
0	19544	14.2	3
0	19545	14.2	3
0	19586	14.25	3
0	19587	14.25	3
0	19588	14.25	3
0	19589	14.25	3
0	19622	14.3	3
0	19623	14.3	3
0	19624	14.3	3
0	19625	14.3	3
0	19626	14.3	3
0	19627	14.3	3
0	19628	14.3	3
0	19629	14.3	3
0	19876	14.35	3
0	19877	14.35	3
0	19878	14.35	3
0	19879	14.35	3
0	20045	14.4	3
0	20046	14.4	3
0	20047	14.4	3
0	20048	14.4	3
0	20049	14.4	3
0	20050	14.4	3
0	20051	14.4	3
0	20052	14.4	3
0	20093	14.45	3
0	20094	14.45	3
0	20095	14.45	3
0	20096	14.45	3
0	20130	14.5	3
0	20131	14.5	3
0	20132	14.5	3
0	20133	14.5	3
0	20134	14.5	3
0	20135	14.5	3
0	20136	14.5	3
0	20137	14.5	3
0	20178	14.55	3
0	20179	14.55	3
0	20180	14.55	3
0	20181	14.55	3
0	20214	14.6	3
0	20215	14.6	3
0	20216	14.6	3
0	20217	14.6	3
0	20218	14.6	3
0	20219	14.6	3
0	20220	14.6	3
0	20221	14.6	3
0	20262	14.65	3
0	20263	14.65	3
0	20264	14.65	3
0	20265	14.65	3
0	20298	14.7	3
0	20299	14.7	3
0	20300	14.7	3
0	20301	14.7	3
0	20302	14.7	3
0	20303	14.7	3
0	20304	14.7	3
0	20305	14.7	3
0	20346	14.75	3
0	20347	14.75	3
0	20348	14.75	3
0	20349	14.75	3
0	20382	14.8	3
0	20383	14.8	3
0	20384	14.8	3
0	20385	14.8	3
0	20386	14.8	3
0	20387	14.8	3
0	20388	14.8	3
0	20389	14.8	3
0	20430	14.85	3
0	20431	14.85	3
0	20432	14.85	3
0	20433	14.85	3
0	20670	14.9	3
0	20671	14.9	3
0	20672	14.9	3
0	20673	14.9	3
0	20674	14.9	3
0	20675	14.9	3
0	20676	14.9	3
0	20677	14.9	3
0	20790	14.95	3
0	20791	14.95	3
0	20792	14.95	3
0	20793	14.95	3
0	20826	15	3
0	20827	15	3
0	20828	15	3
0	20829	15	3
0	20830	15	3
0	20831	15	3
0	20832	15	3
0	20833	15	3
0	20874	15.05	3
0	20875	15.05	3
0	20876	15.05	3
0	20877	15.05	3
0	20914	15.1	3
0	20915	15.1	3
0	20916	15.1	3
0	20917	15.1	3
0	20918	15.1	3
0	20919	15.1	3
0	20920	15.1	3
0	20921	15.1	3
0	20967	15.15	3
0	20968	15.15	3
0	20969	15.15	3
0	20970	15.15	3
0	21003	15.2	3
0	21004	15.2	3
0	21005	15.2	3
0	21006	15.2	3
0	21007	15.2	3
0	21008	15.2	3
0	21009	15.2	3
0	21010	15.2	3
0	21051	15.25	3
0	21052	15.25	3
0	21053	15.25	3
0	21054	15.25	3
0	21087	15.3	3
0	21088	15.3	3
0	21089	15.3	3
0	21090	15.3	3
0	21091	15.3	3
0	21092	15.3	3
0	21093	15.3	3
0	21094	15.3	3
0	21135	15.35	3
0	21136	15.35	3
0	21137	15.35	3
0	21138	15.35	3
0	21171	15.4	3
0	21172	15.4	3
0	21173	15.4	3
0	21174	15.4	3
0	21175	15.4	3
0	21176	15.4	3
0	21177	15.4	3
0	21178	15.4	3
0	21425	15.45	3
0	21426	15.45	3
0	21427	15.45	3
0	21428	15.45	3
0	21594	15.5	3
0	21595	15.5	3
0	21596	15.5	3
0	21597	15.5	3
0	21598	15.5	3
0	21599	15.5	3
0	21600	15.5	3
0	21601	15.5	3
0	21642	15.55	3
0	21643	15.55	3
0	21644	15.55	3
0	21645	15.55	3
0	21678	15.6	3
0	21679	15.6	3
0	21680	15.6	3
0	21681	15.6	3
0	21682	15.6	3
0	21683	15.6	3
0	21684	15.6	3
0	21685	15.6	3
0	21726	15.65	3
0	21727	15.65	3
0	21728	15.65	3
0	21729	15.65	3
0	21762	15.7	3
0	21763	15.7	3
0	21764	15.7	3
0	21765	15.7	3
0	21766	15.7	3
0	21767	15.7	3
0	21768	15.7	3
0	21769	15.7	3
0	21810	15.75	3
0	21811	15.75	3
0	21812	15.75	3
0	21813	15.75	3
0	21846	15.8	3
0	21847	15.8	3
0	21848	15.8	3
0	21849	15.8	3
0	21850	15.8	3
0	21851	15.8	3
0	21852	15.8	3
0	21853	15.8	3
0	21894	15.85	3
0	21895	15.85	3
0	21896	15.85	3
0	21897	15.85	3
0	21930	15.9	3
0	21931	15.9	3
0	21932	15.9	3
0	21933	15.9	3
0	21934	15.9	3
0	21935	15.9	3
0	21936	15.9	3
0	21937	15.9	3
0	21978	15.95	3
0	21979	15.95	3
0	21980	15.95	3
0	21981	15.95	3
0	22218	16	3
0	22219	16	3
0	22220	16	3
0	22221	16	3
0	22222	16	3
0	22223	16	3
0	22224	16	3
0	22225	16	3
0	22338	16.05	3
0	22339	16.05	3
0	22340	16.05	3
0	22341	16.05	3
0	22378	16.1	3
0	22379	16.1	3
0	22380	16.1	3
0	22381	16.1	3
0	22382	16.1	3
0	22383	16.1	3
0	22384	16.1	3
0	22385	16.1	3
0	22431	16.15	3
0	22432	16.15	3
0	22433	16.15	3
0	22434	16.15	3
0	22467	16.2	3
0	22468	16.2	3
0	22469	16.2	3
0	22470	16.2	3
0	22471	16.2	3
0	22472	16.2	3
0	22473	16.2	3
0	22474	16.2	3
0	22515	16.25	3
0	22516	16.25	3
0	22517	16.25	3
0	22518	16.25	3
0	22551	16.3	3
0	22552	16.3	3
0	22553	16.3	3
0	22554	16.3	3
0	22555	16.3	3
0	22556	16.3	3
0	22557	16.3	3
0	22558	16.3	3
0	22599	16.35	3
0	22600	16.35	3
0	22601	16.35	3
0	22602	16.35	3
0	22635	16.4	3
0	22636	16.4	3
0	22637	16.4	3
0	22638	16.4	3
0	22639	16.4	3
0	22640	16.4	3
0	22641	16.4	3
0	22642	16.4	3
0	22683	16.45	3
0	22684	16.45	3
0	22685	16.45	3
0	22686	16.45	3
0	22719	16.5	3
0	22720	16.5	3
0	22721	16.5	3
0	22722	16.5	3
0	22723	16.5	3
0	22724	16.5	3
0	22725	16.5	3
0	22726	16.5	3
0	22973	16.55	3
0	22974	16.55	3
0	22975	16.55	3
0	22976	16.55	3
0	23142	16.6	3
0	23143	16.6	3
0	23144	16.6	3
0	23145	16.6	3
0	23146	16.6	3
0	23147	16.6	3
0	23148	16.6	3
0	23149	16.6	3
0	23190	16.65	3
0	23191	16.65	3
0	23192	16.65	3
0	23193	16.65	3
0	23226	16.7	3
0	23227	16.7	3
0	23228	16.7	3
0	23229	16.7	3
0	23230	16.7	3
0	23231	16.7	3
0	23232	16.7	3
0	23233	16.7	3
0	23274	16.75	3
0	23275	16.75	3
0	23276	16.75	3
0	23277	16.75	3
0	23310	16.8	3
0	23311	16.8	3
0	23312	16.8	3
0	23313	16.8	3
0	23314	16.8	3
0	23315	16.8	3
0	23316	16.8	3
0	23317	16.8	3
0	23358	16.85	3
0	23359	16.85	3
0	23360	16.85	3
0	23361	16.85	3
0	23394	16.9	3
0	23395	16.9	3
0	23396	16.9	3
0	23397	16.9	3
0	23398	16.9	3
0	23399	16.9	3
0	23400	16.9	3
0	23401	16.9	3
0	23442	16.95	3
0	23443	16.95	3
0	23444	16.95	3
0	23445	16.95	3
0	23481	17	3
0	23482	17	3
0	23483	17	3
0	23484	17	3
0	23485	17	3
0	23486	17	3
0	23487	17	3
0	23488	17	3
0	23529	17.05	3
0	23530	17.05	3
0	23531	17.05	3
0	23532	17.05	3
0	23773	17.1	3
0	23774	17.1	3
0	23775	17.1	3
0	23776	17.1	3
0	23777	17.1	3
0	23778	17.1	3
0	23779	17.1	3
0	23780	17.1	3
0	23940	17.15	3
0	23941	17.15	3
0	23942	17.15	3
0	23943	17.15	3
0	23976	17.2	3
0	23977	17.2	3
0	23978	17.2	3
0	23979	17.2	3
0	23980	17.2	3
0	23981	17.2	3
0	23982	17.2	3
0	23983	17.2	3
0	24024	17.25	3
0	24025	17.25	3
0	24026	17.25	3
0	24027	17.25	3
0	24060	17.3	3
0	24061	17.3	3
0	24062	17.3	3
0	24063	17.3	3
0	24064	17.3	3
0	24065	17.3	3
0	24066	17.3	3
0	24067	17.3	3
0	24108	17.35	3
0	24109	17.35	3
0	24110	17.35	3
0	24111	17.35	3
0	24144	17.4	3
0	24145	17.4	3
0	24146	17.4	3
0	24147	17.4	3
0	24148	17.4	3
0	24149	17.4	3
0	24150	17.4	3
0	24151	17.4	3
0	24192	17.45	3
0	24193	17.45	3
0	24194	17.45	3
0	24195	17.45	3
0	24229	17.5	3
0	24230	17.5	3
0	24231	17.5	3
0	24232	17.5	3
0	24233	17.5	3
0	24234	17.5	3
0	24235	17.5	3
0	24236	17.5	3
0	24277	17.55	3
0	24278	17.55	3
0	24279	17.55	3
0	24280	17.55	3
0	24313	17.6	3
0	24314	17.6	3
0	24315	17.6	3
0	24316	17.6	3
0	24317	17.6	3
0	24318	17.6	3
0	24319	17.6	3
0	24320	17.6	3
0	24567	17.65	3
0	24568	17.65	3
0	24569	17.65	3
0	24570	17.65	3
0	24694	17.7	3
0	24695	17.7	3
0	24696	17.7	3
0	24697	17.7	3
0	24698	17.7	3
0	24699	17.7	3
0	24700	17.7	3
0	24701	17.7	3
0	24742	17.75	3
0	24743	17.75	3
0	24744	17.75	3
0	24745	17.75	3
0	24778	17.8	3
0	24779	17.8	3
0	24780	17.8	3
0	24781	17.8	3
0	24782	17.8	3
0	24783	17.8	3
0	24784	17.8	3
0	24785	17.8	3
0	24826	17.85	3
0	24827	17.85	3
0	24828	17.85	3
0	24829	17.85	3
0	24862	17.9	3
0	24863	17.9	3
0	24864	17.9	3
0	24865	17.9	3
0	24866	17.9	3
0	24867	17.9	3
0	24868	17.9	3
0	24869	17.9	3
0	24910	17.95	3
0	24911	17.95	3
0	24912	17.95	3
0	24913	17.95	3
0	24949	18	3
0	24950	18	3
0	24951	18	3
0	24952	18	3
0	24953	18	3
0	24954	18	3
0	24955	18	3
0	24956	18	3
0	24997	18.05	3
0	24998	18.05	3
0	24999	18.05	3
0	25000	18.05	3
0	25037	18.1	3
0	25038	18.1	3
0	25039	18.1	3
0	25040	18.1	3
0	25041	18.1	3
0	25042	18.1	3
0	25043	18.1	3
0	25044	18.1	3
0	25090	18.15	3
0	25091	18.15	3
0	25092	18.15	3
0	25093	18.15	3
0	25332	18.2	3
0	25333	18.2	3
0	25334	18.2	3
0	25335	18.2	3
0	25336	18.2	3
0	25337	18.2	3
0	25338	18.2	3
0	25339	18.2	3
0	25513	18.25	3
0	25514	18.25	3
0	25515	18.25	3
0	25516	18.25	3
0	25549	18.3	3
0	25550	18.3	3
0	25551	18.3	3
0	25552	18.3	3
0	25553	18.3	3
0	25554	18.3	3
0	25555	18.3	3
0	25556	18.3	3
0	25597	18.35	3
0	25598	18.35	3
0	25599	18.35	3
0	25600	18.35	3
0	25633	18.4	3
0	25634	18.4	3
0	25635	18.4	3
0	25636	18.4	3
0	25637	18.4	3
0	25638	18.4	3
0	25639	18.4	3
0	25640	18.4	3
0	25681	18.45	3
0	25682	18.45	3
0	25683	18.45	3
0	25684	18.45	3
0	25718	18.5	3
0	25719	18.5	3
0	25720	18.5	3
0	25721	18.5	3
0	25722	18.5	3
0	25723	18.5	3
0	25724	18.5	3
0	25725	18.5	3
0	25766	18.55	3
0	25767	18.55	3
0	25768	18.55	3
0	25769	18.55	3
0	25802	18.6	3
0	25803	18.6	3
0	25804	18.6	3
0	25805	18.6	3
0	25806	18.6	3
0	25807	18.6	3
0	25808	18.6	3
0	25809	18.6	3
0	25850	18.65	3
0	25851	18.65	3
0	25852	18.65	3
0	25853	18.65	3
0	25886	18.7	3
0	25887	18.7	3
0	25888	18.7	3
0	25889	18.7	3
0	25890	18.7	3
0	25891	18.7	3
0	25892	18.7	3
0	25893	18.7	3
0	26138	18.75	3
0	26139	18.75	3
0	26140	18.75	3
0	26141	18.75	3
0	26246	18.8	3
0	26247	18.8	3
0	26248	18.8	3
0	26249	18.8	3
0	26250	18.8	3
0	26251	18.8	3
0	26252	18.8	3
0	26253	18.8	3
0	26294	18.85	3
0	26295	18.85	3
0	26296	18.85	3
0	26297	18.85	3
0	26330	18.9	3
0	26331	18.9	3
0	26332	18.9	3
0	26333	18.9	3
0	26334	18.9	3
0	26335	18.9	3
0	26336	18.9	3
0	26337	18.9	3
0	26378	18.95	3
0	26379	18.95	3
0	26380	18.95	3
0	26381	18.95	3
0	26417	19	3
0	26418	19	3
0	26419	19	3
0	26420	19	3
0	26421	19	3
0	26422	19	3
0	26423	19	3
0	26424	19	3
0	26465	19.05	3
0	26466	19.05	3
0	26467	19.05	3
0	26468	19.05	3
0	26505	19.1	3
0	26506	19.1	3
0	26507	19.1	3
0	26508	19.1	3
0	26509	19.1	3
0	26510	19.1	3
0	26511	19.1	3
0	26512	19.1	3
0	26558	19.15	3
0	26559	19.15	3
0	26560	19.15	3
0	26561	19.15	3
0	26594	19.2	3
0	26595	19.2	3
0	26596	19.2	3
0	26597	19.2	3
0	26598	19.2	3
0	26599	19.2	3
0	26600	19.2	3
0	26601	19.2	3
0	26642	19.25	3
0	26643	19.25	3
0	26644	19.25	3
0	26645	19.25	3
0	26884	19.3	3
0	26885	19.3	3
0	26886	19.3	3
0	26887	19.3	3
0	26888	19.3	3
0	26889	19.3	3
0	26890	19.3	3
0	26891	19.3	3
0	27065	19.35	3
0	27066	19.35	3
0	27067	19.35	3
0	27068	19.35	3
0	27101	19.4	3
0	27102	19.4	3
0	27103	19.4	3
0	27104	19.4	3
0	27105	19.4	3
0	27106	19.4	3
0	27107	19.4	3
0	27108	19.4	3
0	27149	19.45	3
0	27150	19.45	3
0	27151	19.45	3
0	27152	19.45	3
0	27186	19.5	3
0	27187	19.5	3
0	27188	19.5	3
0	27189	19.5	3
0	27190	19.5	3
0	27191	19.5	3
0	27192	19.5	3
0	27193	19.5	3
0	27234	19.55	3
0	27235	19.55	3
0	27236	19.55	3
0	27237	19.55	3
0	27270	19.6	3
0	27271	19.6	3
0	27272	19.6	3
0	27273	19.6	3
0	27274	19.6	3
0	27275	19.6	3
0	27276	19.6	3
0	27277	19.6	3
0	27318	19.65	3
0	27319	19.65	3
0	27320	19.65	3
0	27321	19.65	3
0	27354	19.7	3
0	27355	19.7	3
0	27356	19.7	3
0	27357	19.7	3
0	27358	19.7	3
0	27359	19.7	3
0	27360	19.7	3
0	27361	19.7	3
0	27402	19.75	3
0	27403	19.75	3
0	27404	19.75	3
0	27405	19.75	3
0	27438	19.8	3
0	27439	19.8	3
0	27440	19.8	3
0	27441	19.8	3
0	27442	19.8	3
0	27443	19.8	3
0	27444	19.8	3
0	27445	19.8	3
0	27690	19.85	3
0	27691	19.85	3
0	27692	19.85	3
0	27693	19.85	3
0	27798	19.9	3
0	27799	19.9	3
0	27800	19.9	3
0	27801	19.9	3
0	27802	19.9	3
0	27803	19.9	3
0	27804	19.9	3
0	27805	19.9	3
0	27846	19.95	3
0	27847	19.95	3
0	27848	19.95	3
0	27849	19.95	3
0	27882	20	3
0	27883	20	3
0	27884	20	3
0	27885	20	3
0	27886	20	3
0	27887	20	3
0	27888	20	3
0	27889	20	3
0	27930	20.05	3
0	27931	20.05	3
0	27932	20.05	3
0	27933	20.05	3
0	27970	20.1	3
0	27971	20.1	3
0	27972	20.1	3
0	27973	20.1	3
0	27974	20.1	3
0	27975	20.1	3
0	27976	20.1	3
0	27977	20.1	3
0	28023	20.15	3
0	28024	20.15	3
0	28025	20.15	3
0	28026	20.15	3
0	28059	20.2	3
0	28060	20.2	3
0	28061	20.2	3
0	28062	20.2	3
0	28063	20.2	3
0	28064	20.2	3
0	28065	20.2	3
0	28066	20.2	3
0	28107	20.25	3
0	28108	20.25	3
0	28109	20.25	3
0	28110	20.25	3
0	28143	20.3	3
0	28144	20.3	3
0	28145	20.3	3
0	28146	20.3	3
0	28147	20.3	3
0	28148	20.3	3
0	28149	20.3	3
0	28150	20.3	3
0	28191	20.35	3
0	28192	20.35	3
0	28193	20.35	3
0	28194	20.35	3
0	28433	20.4	3
0	28434	20.4	3
0	28435	20.4	3
0	28436	20.4	3
0	28437	20.4	3
0	28438	20.4	3
0	28439	20.4	3
0	28440	20.4	3
0	28614	20.45	3
0	28615	20.45	3
0	28616	20.45	3
0	28617	20.45	3
0	28650	20.5	3
0	28651	20.5	3
0	28652	20.5	3
0	28653	20.5	3
0	28654	20.5	3
0	28655	20.5	3
0	28656	20.5	3
0	28657	20.5	3
0	28698	20.55	3
0	28699	20.55	3
0	28700	20.55	3
0	28701	20.55	3
0	28734	20.6	3
0	28735	20.6	3
0	28736	20.6	3
0	28737	20.6	3
0	28738	20.6	3
0	28739	20.6	3
0	28740	20.6	3
0	28741	20.6	3
0	28782	20.65	3
0	28783	20.65	3
0	28784	20.65	3
0	28785	20.65	3
0	28818	20.7	3
0	28819	20.7	3
0	28820	20.7	3
0	28821	20.7	3
0	28822	20.7	3
0	28823	20.7	3
0	28824	20.7	3
0	28825	20.7	3
0	28866	20.75	3
0	28867	20.75	3
0	28868	20.75	3
0	28869	20.75	3
0	28902	20.8	3
0	28903	20.8	3
0	28904	20.8	3
0	28905	20.8	3
0	28906	20.8	3
0	28907	20.8	3
0	28908	20.8	3
0	28909	20.8	3
0	28950	20.85	3
0	28951	20.85	3
0	28952	20.85	3
0	28953	20.85	3
0	28986	20.9	3
0	28987	20.9	3
0	28988	20.9	3
0	28989	20.9	3
0	28990	20.9	3
0	28991	20.9	3
0	28992	20.9	3
0	28993	20.9	3
0	29238	20.95	3
0	29239	20.95	3
0	29240	20.95	3
0	29241	20.95	3
0	29346	21	3
0	29347	21	3
0	29348	21	3
0	29349	21	3
0	29350	21	3
0	29351	21	3
0	29352	21	3
0	29353	21	3
0	29394	21.05	3
0	29395	21.05	3
0	29396	21.05	3
0	29397	21.05	3
0	29434	21.1	3
0	29435	21.1	3
0	29436	21.1	3
0	29437	21.1	3
0	29438	21.1	3
0	29439	21.1	3
0	29440	21.1	3
0	29441	21.1	3
0	29487	21.15	3
0	29488	21.15	3
0	29489	21.15	3
0	29490	21.15	3
0	29523	21.2	3
0	29524	21.2	3
0	29525	21.2	3
0	29526	21.2	3
0	29527	21.2	3
0	29528	21.2	3
0	29529	21.2	3
0	29530	21.2	3
0	29571	21.25	3
0	29572	21.25	3
0	29573	21.25	3
0	29574	21.25	3
0	29607	21.3	3
0	29608	21.3	3
0	29609	21.3	3
0	29610	21.3	3
0	29611	21.3	3
0	29612	21.3	3
0	29613	21.3	3
0	29614	21.3	3
0	29655	21.35	3
0	29656	21.35	3
0	29657	21.35	3
0	29658	21.35	3
0	29691	21.4	3
0	29692	21.4	3
0	29693	21.4	3
0	29694	21.4	3
0	29695	21.4	3
0	29696	21.4	3
0	29697	21.4	3
0	29698	21.4	3
0	29739	21.45	3
0	29740	21.45	3
0	29741	21.45	3
0	29742	21.45	3
0	29981	21.5	3
0	29982	21.5	3
0	29983	21.5	3
0	29984	21.5	3
0	29985	21.5	3
0	29986	21.5	3
0	29987	21.5	3
0	29988	21.5	3
0	30162	21.55	3
0	30163	21.55	3
0	30164	21.55	3
0	30165	21.55	3
0	30198	21.6	3
0	30199	21.6	3
0	30200	21.6	3
0	30201	21.6	3
0	30202	21.6	3
0	30203	21.6	3
0	30204	21.6	3
0	30205	21.6	3
0	30246	21.65	3
0	30247	21.65	3
0	30248	21.65	3
0	30249	21.65	3
0	30282	21.7	3
0	30283	21.7	3
0	30284	21.7	3
0	30285	21.7	3
0	30286	21.7	3
0	30287	21.7	3
0	30288	21.7	3
0	30289	21.7	3
0	30330	21.75	3
0	30331	21.75	3
0	30332	21.75	3
0	30333	21.75	3
0	30366	21.8	3
0	30367	21.8	3
0	30368	21.8	3
0	30369	21.8	3
0	30370	21.8	3
0	30371	21.8	3
0	30372	21.8	3
0	30373	21.8	3
0	30414	21.85	3
0	30415	21.85	3
0	30416	21.85	3
0	30417	21.85	3
0	30450	21.9	3
0	30451	21.9	3
0	30452	21.9	3
0	30453	21.9	3
0	30454	21.9	3
0	30455	21.9	3
0	30456	21.9	3
0	30457	21.9	3
0	30498	21.95	3
0	30499	21.95	3
0	30500	21.95	3
0	30501	21.95	3
0	30537	22	3
0	30538	22	3
0	30539	22	3
0	30540	22	3
0	30541	22	3
0	30542	22	3
0	30543	22	3
0	30544	22	3
0	30789	22.05	3
0	30790	22.05	3
0	30791	22.05	3
0	30792	22.05	3
0	30901	22.1	3
0	30902	22.1	3
0	30903	22.1	3
0	30904	22.1	3
0	30905	22.1	3
0	30906	22.1	3
0	30907	22.1	3
0	30908	22.1	3
0	30954	22.15	3
0	30955	22.15	3
0	30956	22.15	3
0	30957	22.15	3
0	30990	22.2	3
0	30991	22.2	3
0	30992	22.2	3
0	30993	22.2	3
0	30994	22.2	3
0	30995	22.2	3
0	30996	22.2	3
0	30997	22.2	3
0	31038	22.25	3
0	31039	22.25	3
0	31040	22.25	3
0	31041	22.25	3
0	31074	22.3	3
0	31075	22.3	3
0	31076	22.3	3
0	31077	22.3	3
0	31078	22.3	3
0	31079	22.3	3
0	31080	22.3	3
0	31081	22.3	3
0	31122	22.35	3
0	31123	22.35	3
0	31124	22.35	3
0	31125	22.35	3
0	31158	22.4	3
0	31159	22.4	3
0	31160	22.4	3
0	31161	22.4	3
0	31162	22.4	3
0	31163	22.4	3
0	31164	22.4	3
0	31165	22.4	3
0	31206	22.45	3
0	31207	22.45	3
0	31208	22.45	3
0	31209	22.45	3
0	31243	22.5	3
0	31244	22.5	3
0	31245	22.5	3
0	31246	22.5	3
0	31247	22.5	3
0	31248	22.5	3
0	31249	22.5	3
0	31250	22.5	3
0	31291	22.55	3
0	31292	22.55	3
0	31293	22.55	3
0	31294	22.55	3
0	31533	22.6	3
0	31534	22.6	3
0	31535	22.6	3
0	31536	22.6	3
0	31537	22.6	3
0	31538	22.6	3
0	31539	22.6	3
0	31540	22.6	3
0	31714	22.65	3
0	31715	22.65	3
0	31716	22.65	3
0	31717	22.65	3
0	31750	22.7	3
0	31751	22.7	3
0	31752	22.7	3
0	31753	22.7	3
0	31754	22.7	3
0	31755	22.7	3
0	31756	22.7	3
0	31757	22.7	3
0	31798	22.75	3
0	31799	22.75	3
0	31800	22.75	3
0	31801	22.75	3
0	31834	22.8	3
0	31835	22.8	3
0	31836	22.8	3
0	31837	22.8	3
0	31838	22.8	3
0	31839	22.8	3
0	31840	22.8	3
0	31841	22.8	3
0	31882	22.85	3
0	31883	22.85	3
0	31884	22.85	3
0	31885	22.85	3
0	31918	22.9	3
0	31919	22.9	3
0	31920	22.9	3
0	31921	22.9	3
0	31922	22.9	3
0	31923	22.9	3
0	31924	22.9	3
0	31925	22.9	3
0	31966	22.95	3
0	31967	22.95	3
0	31968	22.95	3
0	31969	22.95	3
0	32005	23	3
0	32006	23	3
0	32007	23	3
0	32008	23	3
0	32009	23	3
0	32010	23	3
0	32011	23	3
0	32012	23	3
0	32053	23.05	3
0	32054	23.05	3
0	32055	23.05	3
0	32056	23.05	3
0	32093	23.1	3
0	32094	23.1	3
0	32095	23.1	3
0	32096	23.1	3
0	32097	23.1	3
0	32098	23.1	3
0	32099	23.1	3
0	32100	23.1	3
0	32352	23.15	3
0	32353	23.15	3
0	32354	23.15	3
0	32355	23.15	3
0	32521	23.2	3
0	32522	23.2	3
0	32523	23.2	3
0	32524	23.2	3
0	32525	23.2	3
0	32526	23.2	3
0	32527	23.2	3
0	32528	23.2	3
0	32569	23.25	3
0	32570	23.25	3
0	32571	23.25	3
0	32572	23.25	3
0	32605	23.3	3
0	32606	23.3	3
0	32607	23.3	3
0	32608	23.3	3
0	32609	23.3	3
0	32610	23.3	3
0	32611	23.3	3
0	32612	23.3	3
0	32653	23.35	3
0	32654	23.35	3
0	32655	23.35	3
0	32656	23.35	3
0	32689	23.4	3
0	32690	23.4	3
0	32691	23.4	3
0	32692	23.4	3
0	32693	23.4	3
0	32694	23.4	3
0	32695	23.4	3
0	32696	23.4	3
0	32737	23.45	3
0	32738	23.45	3
0	32739	23.45	3
0	32740	23.45	3
0	32774	23.5	3
0	32775	23.5	3
0	32776	23.5	3
0	32777	23.5	3
0	32778	23.5	3
0	32779	23.5	3
0	32780	23.5	3
0	32781	23.5	3
0	32822	23.55	3
0	32823	23.55	3
0	32824	23.55	3
0	32825	23.55	3
0	32858	23.6	3
0	32859	23.6	3
0	32860	23.6	3
0	32861	23.6	3
0	32862	23.6	3
0	32863	23.6	3
0	32864	23.6	3
0	32865	23.6	3
0	32906	23.65	3
0	32907	23.65	3
0	32908	23.65	3
0	32909	23.65	3
0	33146	23.7	3
0	33147	23.7	3
0	33148	23.7	3
0	33149	23.7	3
0	33150	23.7	3
0	33151	23.7	3
0	33152	23.7	3
0	33153	23.7	3
0	33266	23.75	3
0	33267	23.75	3
0	33268	23.75	3
0	33269	23.75	3
0	33302	23.8	3
0	33303	23.8	3
0	33304	23.8	3
0	33305	23.8	3
0	33306	23.8	3
0	33307	23.8	3
0	33308	23.8	3
0	33309	23.8	3
0	33350	23.85	3
0	33351	23.85	3
0	33352	23.85	3
0	33353	23.85	3
0	33386	23.9	3
0	33387	23.9	3
0	33388	23.9	3
0	33389	23.9	3
0	33390	23.9	3
0	33391	23.9	3
0	33392	23.9	3
0	33393	23.9	3
0	33434	23.95	3
0	33435	23.95	3
0	33436	23.95	3
0	33437	23.95	3
0	33473	24	3
0	33474	24	3
0	33475	24	3
0	33476	24	3
0	33477	24	3
0	33478	24	3
0	33479	24	3
0	33480	24	3
0	33521	24.05	3
0	33522	24.05	3
0	33523	24.05	3
0	33524	24.05	3
0	33561	24.1	3
0	33562	24.1	3
0	33563	24.1	3
0	33564	24.1	3
0	33565	24.1	3
0	33566	24.1	3
0	33567	24.1	3
0	33568	24.1	3
0	33614	24.15	3
0	33615	24.15	3
0	33616	24.15	3
0	33617	24.15	3
0	33650	24.2	3
0	33651	24.2	3
0	33652	24.2	3
0	33653	24.2	3
0	33654	24.2	3
0	33655	24.2	3
0	33656	24.2	3
0	33657	24.2	3
0	33904	24.25	3
0	33905	24.25	3
0	33906	24.25	3
0	33907	24.25	3
0	34073	24.3	3
0	34074	24.3	3
0	34075	24.3	3
0	34076	24.3	3
0	34077	24.3	3
0	34078	24.3	3
0	34079	24.3	3
0	34080	24.3	3
0	34121	24.35	3
0	34122	24.35	3
0	34123	24.35	3
0	34124	24.35	3
0	34157	24.4	3
0	34158	24.4	3
0	34159	24.4	3
0	34160	24.4	3
0	34161	24.4	3
0	34162	24.4	3
0	34163	24.4	3
0	34164	24.4	3
0	34205	24.45	3
0	34206	24.45	3
0	34207	24.45	3
0	34208	24.45	3
0	34242	24.5	3
0	34243	24.5	3
0	34244	24.5	3
0	34245	24.5	3
0	34246	24.5	3
0	34247	24.5	3
0	34248	24.5	3
0	34249	24.5	3
0	34290	24.55	3
0	34291	24.55	3
0	34292	24.55	3
0	34293	24.55	3
0	34326	24.6	3
0	34327	24.6	3
0	34328	24.6	3
0	34329	24.6	3
0	34330	24.6	3
0	34331	24.6	3
0	34332	24.6	3
0	34333	24.6	3
0	34374	24.65	3
0	34375	24.65	3
0	34376	24.65	3
0	34377	24.65	3
0	34410	24.7	3
0	34411	24.7	3
0	34412	24.7	3
0	34413	24.7	3
0	34414	24.7	3
0	34415	24.7	3
0	34416	24.7	3
0	34417	24.7	3
0	34458	24.75	3
0	34459	24.75	3
0	34460	24.75	3
0	34461	24.75	3
0	34698	24.8	3
0	34699	24.8	3
0	34700	24.8	3
0	34701	24.8	3
0	34702	24.8	3
0	34703	24.8	3
0	34704	24.8	3
0	34705	24.8	3
0	34818	24.85	3
0	34819	24.85	3
0	34820	24.85	3
0	34821	24.85	3
0	34854	24.9	3
0	34855	24.9	3
0	34856	24.9	3
0	34857	24.9	3
0	34858	24.9	3
0	34859	24.9	3
0	34860	24.9	3
0	34861	24.9	3
0	34902	24.95	3
0	34903	24.95	3
0	34904	24.95	3
0	34905	24.95	3
0	34938	25	3
0	34939	25	3
0	34940	25	3
0	34941	25	3
0	34942	25	3
0	34943	25	3
0	34944	25	3
0	34945	25	3
0	34986	25.05	3
0	34987	25.05	3
0	34988	25.05	3
0	34989	25.05	3
0	35026	25.1	3
0	35027	25.1	3
0	35028	25.1	3
0	35029	25.1	3
0	35030	25.1	3
0	35031	25.1	3
0	35032	25.1	3
0	35033	25.1	3
0	35079	25.15	3
0	35080	25.15	3
0	35081	25.15	3
0	35082	25.15	3
0	35115	25.2	3
0	35116	25.2	3
0	35117	25.2	3
0	35118	25.2	3
0	35119	25.2	3
0	35120	25.2	3
0	35121	25.2	3
0	35122	25.2	3
0	35163	25.25	3
0	35164	25.25	3
0	35165	25.25	3
0	35166	25.25	3
0	35199	25.3	3
0	35200	25.3	3
0	35201	25.3	3
0	35202	25.3	3
0	35203	25.3	3
0	35204	25.3	3
0	35205	25.3	3
0	35206	25.3	3
0	35453	25.35	3
0	35454	25.35	3
0	35455	25.35	3
0	35456	25.35	3
0	35622	25.4	3
0	35623	25.4	3
0	35624	25.4	3
0	35625	25.4	3
0	35626	25.4	3
0	35627	25.4	3
0	35628	25.4	3
0	35629	25.4	3
0	35670	25.45	3
0	35671	25.45	3
0	35672	25.45	3
0	35673	25.45	3
0	35706	25.5	3
0	35707	25.5	3
0	35708	25.5	3
0	35709	25.5	3
0	35710	25.5	3
0	35711	25.5	3
0	35712	25.5	3
0	35713	25.5	3
0	35754	25.55	3
0	35755	25.55	3
0	35756	25.55	3
0	35757	25.55	3
0	35790	25.6	3
0	35791	25.6	3
0	35792	25.6	3
0	35793	25.6	3
0	35794	25.6	3
0	35795	25.6	3
0	35796	25.6	3
0	35797	25.6	3
0	35838	25.65	3
0	35839	25.65	3
0	35840	25.65	3
0	35841	25.65	3
0	35874	25.7	3
0	35875	25.7	3
0	35876	25.7	3
0	35877	25.7	3
0	35878	25.7	3
0	35879	25.7	3
0	35880	25.7	3
0	35881	25.7	3
0	35922	25.75	3
0	35923	25.75	3
0	35924	25.75	3
0	35925	25.75	3
0	35958	25.8	3
0	35959	25.8	3
0	35960	25.8	3
0	35961	25.8	3
0	35962	25.8	3
0	35963	25.8	3
0	35964	25.8	3
0	35965	25.8	3
0	36006	25.85	3
0	36007	25.85	3
0	36008	25.85	3
0	36009	25.85	3
0	36246	25.9	3
0	36247	25.9	3
0	36248	25.9	3
0	36249	25.9	3
0	36250	25.9	3
0	36251	25.9	3
0	36252	25.9	3
0	36253	25.9	3
0	36366	25.95	3
0	36367	25.95	3
0	36368	25.95	3
0	36369	25.95	3
0	36402	26	3
0	36403	26	3
0	36404	26	3
0	36405	26	3
0	36406	26	3
0	36407	26	3
0	36408	26	3
0	36409	26	3
0	36450	26.05	3
0	36451	26.05	3
0	36452	26.05	3
0	36453	26.05	3
0	36490	26.1	3
0	36491	26.1	3
0	36492	26.1	3
0	36493	26.1	3
0	36494	26.1	3
0	36495	26.1	3
0	36496	26.1	3
0	36497	26.1	3
0	36543	26.15	3
0	36544	26.15	3
0	36545	26.15	3
0	36546	26.15	3
0	36579	26.2	3
0	36580	26.2	3
0	36581	26.2	3
0	36582	26.2	3
0	36583	26.2	3
0	36584	26.2	3
0	36585	26.2	3
0	36586	26.2	3
0	36627	26.25	3
0	36628	26.25	3
0	36629	26.25	3
0	36630	26.25	3
0	36663	26.3	3
0	36664	26.3	3
0	36665	26.3	3
0	36666	26.3	3
0	36667	26.3	3
0	36668	26.3	3
0	36669	26.3	3
0	36670	26.3	3
0	36711	26.35	3
0	36712	26.35	3
0	36713	26.35	3
0	36714	26.35	3
0	36747	26.4	3
0	36748	26.4	3
0	36749	26.4	3
0	36750	26.4	3
0	36751	26.4	3
0	36752	26.4	3
0	36753	26.4	3
0	36754	26.4	3
0	37001	26.45	3
0	37002	26.45	3
0	37003	26.45	3
0	37004	26.45	3
0	37170	26.5	3
0	37171	26.5	3
0	37172	26.5	3
0	37173	26.5	3
0	37174	26.5	3
0	37175	26.5	3
0	37176	26.5	3
0	37177	26.5	3
0	37218	26.55	3
0	37219	26.55	3
0	37220	26.55	3
0	37221	26.55	3
0	37254	26.6	3
0	37255	26.6	3
0	37256	26.6	3
0	37257	26.6	3
0	37258	26.6	3
0	37259	26.6	3
0	37260	26.6	3
0	37261	26.6	3
0	37302	26.65	3
0	37303	26.65	3
0	37304	26.65	3
0	37305	26.65	3
0	37338	26.7	3
0	37339	26.7	3
0	37340	26.7	3
0	37341	26.7	3
0	37342	26.7	3
0	37343	26.7	3
0	37344	26.7	3
0	37345	26.7	3
0	37386	26.75	3
0	37387	26.75	3
0	37388	26.75	3
0	37389	26.75	3
0	37422	26.8	3
0	37423	26.8	3
0	37424	26.8	3
0	37425	26.8	3
0	37426	26.8	3
0	37427	26.8	3
0	37428	26.8	3
0	37429	26.8	3
0	37470	26.85	3
0	37471	26.85	3
0	37472	26.85	3
0	37473	26.85	3
0	37506	26.9	3
0	37507	26.9	3
0	37508	26.9	3
0	37509	26.9	3
0	37510	26.9	3
0	37511	26.9	3
0	37512	26.9	3
0	37513	26.9	3
0	37554	26.95	3
0	37555	26.95	3
0	37556	26.95	3
0	37557	26.95	3
0	37797	27	3
0	37798	27	3
0	37799	27	3
0	37800	27	3
0	37801	27	3
0	37802	27	3
0	37803	27	3
0	37804	27	3
0	37917	27.05	3
0	37918	27.05	3
0	37919	27.05	3
0	37920	27.05	3
0	37957	27.1	3
0	37958	27.1	3
0	37959	27.1	3
0	37960	27.1	3
0	37961	27.1	3
0	37962	27.1	3
0	37963	27.1	3
0	37964	27.1	3
0	38010	27.15	3
0	38011	27.15	3
0	38012	27.15	3
0	38013	27.15	3
0	38046	27.2	3
0	38047	27.2	3
0	38048	27.2	3
0	38049	27.2	3
0	38050	27.2	3
0	38051	27.2	3
0	38052	27.2	3
0	38053	27.2	3
0	38094	27.25	3
0	38095	27.25	3
0	38096	27.25	3
0	38097	27.25	3
0	38130	27.3	3
0	38131	27.3	3
0	38132	27.3	3
0	38133	27.3	3
0	38134	27.3	3
0	38135	27.3	3
0	38136	27.3	3
0	38137	27.3	3
0	38178	27.35	3
0	38179	27.35	3
0	38180	27.35	3
0	38181	27.35	3
0	38214	27.4	3
0	38215	27.4	3
0	38216	27.4	3
0	38217	27.4	3
0	38218	27.4	3
0	38219	27.4	3
0	38220	27.4	3
0	38221	27.4	3
0	38262	27.45	3
0	38263	27.45	3
0	38264	27.45	3
0	38265	27.45	3
0	38299	27.5	3
0	38300	27.5	3
0	38301	27.5	3
0	38302	27.5	3
0	38303	27.5	3
0	38304	27.5	3
0	38305	27.5	3
0	38306	27.5	3
0	38553	27.55	3
0	38554	27.55	3
0	38555	27.55	3
0	38556	27.55	3
0	38722	27.6	3
0	38723	27.6	3
0	38724	27.6	3
0	38725	27.6	3
0	38726	27.6	3
0	38727	27.6	3
0	38728	27.6	3
0	38729	27.6	3
0	38770	27.65	3
0	38771	27.65	3
0	38772	27.65	3
0	38773	27.65	3
0	38806	27.7	3
0	38807	27.7	3
0	38808	27.7	3
0	38809	27.7	3
0	38810	27.7	3
0	38811	27.7	3
0	38812	27.7	3
0	38813	27.7	3
0	38854	27.75	3
0	38855	27.75	3
0	38856	27.75	3
0	38857	27.75	3
0	38890	27.8	3
0	38891	27.8	3
0	38892	27.8	3
0	38893	27.8	3
0	38894	27.8	3
0	38895	27.8	3
0	38896	27.8	3
0	38897	27.8	3
0	38938	27.85	3
0	38939	27.85	3
0	38940	27.85	3
0	38941	27.85	3
0	38974	27.9	3
0	38975	27.9	3
0	38976	27.9	3
0	38977	27.9	3
0	38978	27.9	3
0	38979	27.9	3
0	38980	27.9	3
0	38981	27.9	3
0	39022	27.95	3
0	39023	27.95	3
0	39024	27.95	3
0	39025	27.95	3
0	39062	28	3
0	39063	28	3
0	39064	28	3
0	39065	28	3
0	39066	28	3
0	39067	28	3
0	39068	28	3
0	39069	28	3
0	39110	28.05	3
0	39111	28.05	3
0	39112	28.05	3
0	39113	28.05	3
0	39354	28.1	3
0	39355	28.1	3
0	39356	28.1	3
0	39357	28.1	3
0	39358	28.1	3
0	39359	28.1	3
0	39360	28.1	3
0	39361	28.1	3
0	39521	28.15	3
0	39522	28.15	3
0	39523	28.15	3
0	39524	28.15	3
0	39557	28.2	3
0	39558	28.2	3
0	39559	28.2	3
0	39560	28.2	3
0	39561	28.2	3
0	39562	28.2	3
0	39563	28.2	3
0	39564	28.2	3
0	39605	28.25	3
0	39606	28.25	3
0	39607	28.25	3
0	39608	28.25	3
0	39641	28.3	3
0	39642	28.3	3
0	39643	28.3	3
0	39644	28.3	3
0	39645	28.3	3
0	39646	28.3	3
0	39647	28.3	3
0	39648	28.3	3
0	39689	28.35	3
0	39690	28.35	3
0	39691	28.35	3
0	39692	28.35	3
0	39725	28.4	3
0	39726	28.4	3
0	39727	28.4	3
0	39728	28.4	3
0	39729	28.4	3
0	39730	28.4	3
0	39731	28.4	3
0	39732	28.4	3
0	39773	28.45	3
0	39774	28.45	3
0	39775	28.45	3
0	39776	28.45	3
0	39810	28.5	3
0	39811	28.5	3
0	39812	28.5	3
0	39813	28.5	3
0	39814	28.5	3
0	39815	28.5	3
0	39816	28.5	3
0	39817	28.5	3
0	39858	28.55	3
0	39859	28.55	3
0	39860	28.55	3
0	39861	28.55	3
0	39894	28.6	3
0	39895	28.6	3
0	39896	28.6	3
0	39897	28.6	3
0	39898	28.6	3
0	39899	28.6	3
0	39900	28.6	3
0	39901	28.6	3
0	40148	28.65	3
0	40149	28.65	3
0	40150	28.65	3
0	40151	28.65	3
0	40275	28.7	3
0	40276	28.7	3
0	40277	28.7	3
0	40278	28.7	3
0	40279	28.7	3
0	40280	28.7	3
0	40281	28.7	3
0	40282	28.7	3
0	40323	28.75	3
0	40324	28.75	3
0	40325	28.75	3
0	40326	28.75	3
0	40359	28.8	3
0	40360	28.8	3
0	40361	28.8	3
0	40362	28.8	3
0	40363	28.8	3
0	40364	28.8	3
0	40365	28.8	3
0	40366	28.8	3
0	40407	28.85	3
0	40408	28.85	3
0	40409	28.85	3
0	40410	28.85	3
0	40443	28.9	3
0	40444	28.9	3
0	40445	28.9	3
0	40446	28.9	3
0	40447	28.9	3
0	40448	28.9	3
0	40449	28.9	3
0	40450	28.9	3
0	40491	28.95	3
0	40492	28.95	3
0	40493	28.95	3
0	40494	28.95	3
0	40532	29	3
0	40533	29	3
0	40534	29	3
0	40535	29	3
0	40536	29	3
0	40537	29	3
0	40538	29	3
0	40539	29	3
0	40580	29.05	3
0	40581	29.05	3
0	40582	29.05	3
0	40583	29.05	3
0	40620	29.1	3
0	40621	29.1	3
0	40622	29.1	3
0	40623	29.1	3
0	40624	29.1	3
0	40625	29.1	3
0	40626	29.1	3
0	40627	29.1	3
0	40673	29.15	3
0	40674	29.15	3
0	40675	29.15	3
0	40676	29.15	3
0	40915	29.2	3
0	40916	29.2	3
0	40917	29.2	3
0	40918	29.2	3
0	40919	29.2	3
0	40920	29.2	3
0	40921	29.2	3
0	40922	29.2	3
0	41096	29.25	3
0	41097	29.25	3
0	41098	29.25	3
0	41099	29.25	3
0	41132	29.3	3
0	41133	29.3	3
0	41134	29.3	3
0	41135	29.3	3
0	41136	29.3	3
0	41137	29.3	3
0	41138	29.3	3
0	41139	29.3	3
0	41180	29.35	3
0	41181	29.35	3
0	41182	29.35	3
0	41183	29.35	3
0	41216	29.4	3
0	41217	29.4	3
0	41218	29.4	3
0	41219	29.4	3
0	41220	29.4	3
0	41221	29.4	3
0	41222	29.4	3
0	41223	29.4	3
0	41264	29.45	3
0	41265	29.45	3
0	41266	29.45	3
0	41267	29.45	3
0	41301	29.5	3
0	41302	29.5	3
0	41303	29.5	3
0	41304	29.5	3
0	41305	29.5	3
0	41306	29.5	3
0	41307	29.5	3
0	41308	29.5	3
0	41349	29.55	3
0	41350	29.55	3
0	41351	29.55	3
0	41352	29.55	3
0	41385	29.6	3
0	41386	29.6	3
0	41387	29.6	3
0	41388	29.6	3
0	41389	29.6	3
0	41390	29.6	3
0	41391	29.6	3
0	41392	29.6	3
0	41433	29.65	3
0	41434	29.65	3
0	41435	29.65	3
0	41436	29.65	3
0	41469	29.7	3
0	41470	29.7	3
0	41471	29.7	3
0	41472	29.7	3
0	41473	29.7	3
0	41474	29.7	3
0	41475	29.7	3
0	41476	29.7	3
0	41721	29.75	3
0	41722	29.75	3
0	41723	29.75	3
0	41724	29.75	3
0	41829	29.8	3
0	41830	29.8	3
0	41831	29.8	3
0	41832	29.8	3
0	41833	29.8	3
0	41834	29.8	3
0	41835	29.8	3
0	41836	29.8	3
0	41877	29.85	3
0	41878	29.85	3
0	41879	29.85	3
0	41880	29.85	3
0	41913	29.9	3
0	41914	29.9	3
0	41915	29.9	3
0	41916	29.9	3
0	41917	29.9	3
0	41918	29.9	3
0	41919	29.9	3
0	41920	29.9	3
0	41961	29.95	3
0	41962	29.95	3
0	41963	29.95	3
0	41964	29.95	3
0	41997	30	3
0	41998	30	3
0	41999	30	3
0	42000	30	3
0	42001	30	3
0	42002	30	3
0	42003	30	3
0	42004	30	3
0	42045	30.05	3
0	42046	30.05	3
0	42047	30.05	3
0	42048	30.05	3
0	42085	30.1	3
0	42086	30.1	3
0	42087	30.1	3
0	42088	30.1	3
0	42089	30.1	3
0	42090	30.1	3
0	42091	30.1	3
0	42092	30.1	3
0	42138	30.15	3
0	42139	30.15	3
0	42140	30.15	3
0	42141	30.15	3
0	42174	30.2	3
0	42175	30.2	3
0	42176	30.2	3
0	42177	30.2	3
0	42178	30.2	3
0	42179	30.2	3
0	42180	30.2	3
0	42181	30.2	3
0	42222	30.25	3
0	42223	30.25	3
0	42224	30.25	3
0	42225	30.25	3
0	42464	30.3	3
0	42465	30.3	3
0	42466	30.3	3
0	42467	30.3	3
0	42468	30.3	3
0	42469	30.3	3
0	42470	30.3	3
0	42471	30.3	3
0	42645	30.35	3
0	42646	30.35	3
0	42647	30.35	3
0	42648	30.35	3
0	42681	30.4	3
0	42682	30.4	3
0	42683	30.4	3
0	42684	30.4	3
0	42685	30.4	3
0	42686	30.4	3
0	42687	30.4	3
0	42688	30.4	3
0	42729	30.45	3
0	42730	30.45	3
0	42731	30.45	3
0	42732	30.45	3
0	42765	30.5	3
0	42766	30.5	3
0	42767	30.5	3
0	42768	30.5	3
0	42769	30.5	3
0	42770	30.5	3
0	42771	30.5	3
0	42772	30.5	3
0	42813	30.55	3
0	42814	30.55	3
0	42815	30.55	3
0	42816	30.55	3
0	42849	30.6	3
0	42850	30.6	3
0	42851	30.6	3
0	42852	30.6	3
0	42853	30.6	3
0	42854	30.6	3
0	42855	30.6	3
0	42856	30.6	3
0	42897	30.65	3
0	42898	30.65	3
0	42899	30.65	3
0	42900	30.65	3
0	42933	30.7	3
0	42934	30.7	3
0	42935	30.7	3
0	42936	30.7	3
0	42937	30.7	3
0	42938	30.7	3
0	42939	30.7	3
0	42940	30.7	3
0	42981	30.75	3
0	42982	30.75	3
0	42983	30.75	3
0	42984	30.75	3
0	43017	30.8	3
0	43018	30.8	3
0	43019	30.8	3
0	43020	30.8	3
0	43021	30.8	3
0	43022	30.8	3
0	43023	30.8	3
0	43024	30.8	3
0	43269	30.85	3
0	43270	30.85	3
0	43271	30.85	3
0	43272	30.85	3
0	43377	30.9	3
0	43378	30.9	3
0	43379	30.9	3
0	43380	30.9	3
0	43381	30.9	3
0	43382	30.9	3
0	43383	30.9	3
0	43384	30.9	3
0	43425	30.95	3
0	43426	30.95	3
0	43427	30.95	3
0	43428	30.95	3
0	43461	31	3
0	43462	31	3
0	43463	31	3
0	43464	31	3
0	43465	31	3
0	43466	31	3
0	43467	31	3
0	43468	31	3
0	43509	31.05	3
0	43510	31.05	3
0	43511	31.05	3
0	43512	31.05	3
0	43549	31.1	3
0	43550	31.1	3
0	43551	31.1	3
0	43552	31.1	3
0	43553	31.1	3
0	43554	31.1	3
0	43555	31.1	3
0	43556	31.1	3
0	43602	31.15	3
0	43603	31.15	3
0	43604	31.15	3
0	43605	31.15	3
0	43638	31.2	3
0	43639	31.2	3
0	43640	31.2	3
0	43641	31.2	3
0	43642	31.2	3
0	43643	31.2	3
0	43644	31.2	3
0	43645	31.2	3
0	43686	31.25	3
0	43687	31.25	3
0	43688	31.25	3
0	43689	31.25	3
0	43722	31.3	3
0	43723	31.3	3
0	43724	31.3	3
0	43725	31.3	3
0	43726	31.3	3
0	43727	31.3	3
0	43728	31.3	3
0	43729	31.3	3
0	43770	31.35	3
0	43771	31.35	3
0	43772	31.35	3
0	43773	31.35	3
0	44012	31.4	3
0	44013	31.4	3
0	44014	31.4	3
0	44015	31.4	3
0	44016	31.4	3
0	44017	31.4	3
0	44018	31.4	3
0	44019	31.4	3
0	44193	31.45	3
0	44194	31.45	3
0	44195	31.45	3
0	44196	31.45	3
0	44229	31.5	3
0	44230	31.5	3
0	44231	31.5	3
0	44232	31.5	3
0	44233	31.5	3
0	44234	31.5	3
0	44235	31.5	3
0	44236	31.5	3
0	44277	31.55	3
0	44278	31.55	3
0	44279	31.55	3
0	44280	31.55	3
0	44313	31.6	3
0	44314	31.6	3
0	44315	31.6	3
0	44316	31.6	3
0	44317	31.6	3
0	44318	31.6	3
0	44319	31.6	3
0	44320	31.6	3
0	44361	31.65	3
0	44362	31.65	3
0	44363	31.65	3
0	44364	31.65	3
0	44397	31.7	3
0	44398	31.7	3
0	44399	31.7	3
0	44400	31.7	3
0	44401	31.7	3
0	44402	31.7	3
0	44403	31.7	3
0	44404	31.7	3
0	44445	31.75	3
0	44446	31.75	3
0	44447	31.75	3
0	44448	31.75	3
0	44481	31.8	3
0	44482	31.8	3
0	44483	31.8	3
0	44484	31.8	3
0	44485	31.8	3
0	44486	31.8	3
0	44487	31.8	3
0	44488	31.8	3
0	44529	31.85	3
0	44530	31.85	3
0	44531	31.85	3
0	44532	31.85	3
0	44565	31.9	3
0	44566	31.9	3
0	44567	31.9	3
0	44568	31.9	3
0	44569	31.9	3
0	44570	31.9	3
0	44571	31.9	3
0	44572	31.9	3
0	44817	31.95	3
0	44818	31.95	3
0	44819	31.95	3
0	44820	31.95	3
0	44928	32	3
0	44929	32	3
0	44930	32	3
0	44931	32	3
0	44932	32	3
0	44933	32	3
0	44934	32	3
0	44935	32	3
0	44976	32.05	3
0	44977	32.05	3
0	44978	32.05	3
0	44979	32.05	3
0	45016	32.1	3
0	45017	32.1	3
0	45018	32.1	3
0	45019	32.1	3
0	45020	32.1	3
0	45021	32.1	3
0	45022	32.1	3
0	45023	32.1	3
0	45069	32.15	3
0	45070	32.15	3
0	45071	32.15	3
0	45072	32.15	3
0	45105	32.2	3
0	45106	32.2	3
0	45107	32.2	3
0	45108	32.2	3
0	45109	32.2	3
0	45110	32.2	3
0	45111	32.2	3
0	45112	32.2	3
0	45153	32.25	3
0	45154	32.25	3
0	45155	32.25	3
0	45156	32.25	3
0	45189	32.3	3
0	45190	32.3	3
0	45191	32.3	3
0	45192	32.3	3
0	45193	32.3	3
0	45194	32.3	3
0	45195	32.3	3
0	45196	32.3	3
0	45237	32.35	3
0	45238	32.35	3
0	45239	32.35	3
0	45240	32.35	3
0	45273	32.4	3
0	45274	32.4	3
0	45275	32.4	3
0	45276	32.4	3
0	45277	32.4	3
0	45278	32.4	3
0	45279	32.4	3
0	45280	32.4	3
0	45321	32.45	3
0	45322	32.45	3
0	45323	32.45	3
0	45324	32.45	3
0	45564	32.5	3
0	45565	32.5	3
0	45566	32.5	3
0	45567	32.5	3
0	45568	32.5	3
0	45569	32.5	3
0	45570	32.5	3
0	45571	32.5	3
0	45745	32.55	3
0	45746	32.55	3
0	45747	32.55	3
0	45748	32.55	3
0	45781	32.6	3
0	45782	32.6	3
0	45783	32.6	3
0	45784	32.6	3
0	45785	32.6	3
0	45786	32.6	3
0	45787	32.6	3
0	45788	32.6	3
0	45829	32.65	3
0	45830	32.65	3
0	45831	32.65	3
0	45832	32.65	3
0	45865	32.7	3
0	45866	32.7	3
0	45867	32.7	3
0	45868	32.7	3
0	45869	32.7	3
0	45870	32.7	3
0	45871	32.7	3
0	45872	32.7	3
0	45913	32.75	3
0	45914	32.75	3
0	45915	32.75	3
0	45916	32.75	3
0	45949	32.8	3
0	45950	32.8	3
0	45951	32.8	3
0	45952	32.8	3
0	45953	32.8	3
0	45954	32.8	3
0	45955	32.8	3
0	45956	32.8	3
0	45997	32.85	3
0	45998	32.85	3
0	45999	32.85	3
0	46000	32.85	3
0	46033	32.9	3
0	46034	32.9	3
0	46035	32.9	3
0	46036	32.9	3
0	46037	32.9	3
0	46038	32.9	3
0	46039	32.9	3
0	46040	32.9	3
0	46081	32.95	3
0	46082	32.95	3
0	46083	32.95	3
0	46084	32.95	3
0	46121	33	3
0	46122	33	3
0	46123	33	3
0	46124	33	3
0	46125	33	3
0	46126	33	3
0	46127	33	3
0	46128	33	3
0	46373	33.05	3
0	46374	33.05	3
0	46375	33.05	3
0	46376	33.05	3
0	46485	33.1	3
0	46486	33.1	3
0	46487	33.1	3
0	46488	33.1	3
0	46489	33.1	3
0	46490	33.1	3
0	46491	33.1	3
0	46492	33.1	3
0	46538	33.15	3
0	46539	33.15	3
0	46540	33.15	3
0	46541	33.15	3
0	46574	33.2	3
0	46575	33.2	3
0	46576	33.2	3
0	46577	33.2	3
0	46578	33.2	3
0	46579	33.2	3
0	46580	33.2	3
0	46581	33.2	3
0	46622	33.25	3
0	46623	33.25	3
0	46624	33.25	3
0	46625	33.25	3
0	46658	33.3	3
0	46659	33.3	3
0	46660	33.3	3
0	46661	33.3	3
0	46662	33.3	3
0	46663	33.3	3
0	46664	33.3	3
0	46665	33.3	3
0	46706	33.35	3
0	46707	33.35	3
0	46708	33.35	3
0	46709	33.35	3
0	46742	33.4	3
0	46743	33.4	3
0	46744	33.4	3
0	46745	33.4	3
0	46746	33.4	3
0	46747	33.4	3
0	46748	33.4	3
0	46749	33.4	3
0	46790	33.45	3
0	46791	33.45	3
0	46792	33.45	3
0	46793	33.45	3
0	46827	33.5	3
0	46828	33.5	3
0	46829	33.5	3
0	46830	33.5	3
0	46831	33.5	3
0	46832	33.5	3
0	46833	33.5	3
0	46834	33.5	3
0	46875	33.55	3
0	46876	33.55	3
0	46877	33.55	3
0	46878	33.55	3
0	47117	33.6	3
0	47118	33.6	3
0	47119	33.6	3
0	47120	33.6	3
0	47121	33.6	3
0	47122	33.6	3
0	47123	33.6	3
0	47124	33.6	3
0	47298	33.65	3
0	47299	33.65	3
0	47300	33.65	3
0	47301	33.65	3
0	47334	33.7	3
0	47335	33.7	3
0	47336	33.7	3
0	47337	33.7	3
0	47338	33.7	3
0	47339	33.7	3
0	47340	33.7	3
0	47341	33.7	3
0	47382	33.75	3
0	47383	33.75	3
0	47384	33.75	3
0	47385	33.75	3
0	47418	33.8	3
0	47419	33.8	3
0	47420	33.8	3
0	47421	33.8	3
0	47422	33.8	3
0	47423	33.8	3
0	47424	33.8	3
0	47425	33.8	3
0	47466	33.85	3
0	47467	33.85	3
0	47468	33.85	3
0	47469	33.85	3
0	47502	33.9	3
0	47503	33.9	3
0	47504	33.9	3
0	47505	33.9	3
0	47506	33.9	3
0	47507	33.9	3
0	47508	33.9	3
0	47509	33.9	3
0	47550	33.95	3
0	47551	33.95	3
0	47552	33.95	3
0	47553	33.95	3
0	47591	34	3
0	47592	34	3
0	47593	34	3
0	47594	34	3
0	47595	34	3
0	47596	34	3
0	47597	34	3
0	47598	34	3
0	47639	34.05	3
0	47640	34.05	3
0	47641	34.05	3
0	47642	34.05	3
0	47679	34.1	3
0	47680	34.1	3
0	47681	34.1	3
0	47682	34.1	3
0	47683	34.1	3
0	47684	34.1	3
0	47685	34.1	3
0	47686	34.1	3
0	47938	34.15	3
0	47939	34.15	3
0	47940	34.15	3
0	47941	34.15	3
0	48107	34.2	3
0	48108	34.2	3
0	48109	34.2	3
0	48110	34.2	3
0	48111	34.2	3
0	48112	34.2	3
0	48113	34.2	3
0	48114	34.2	3
0	48155	34.25	3
0	48156	34.25	3
0	48157	34.25	3
0	48158	34.25	3
0	48191	34.3	3
0	48192	34.3	3
0	48193	34.3	3
0	48194	34.3	3
0	48195	34.3	3
0	48196	34.3	3
0	48197	34.3	3
0	48198	34.3	3
0	48239	34.35	3
0	48240	34.35	3
0	48241	34.35	3
0	48242	34.35	3
0	48275	34.4	3
0	48276	34.4	3
0	48277	34.4	3
0	48278	34.4	3
0	48279	34.4	3
0	48280	34.4	3
0	48281	34.4	3
0	48282	34.4	3
0	48323	34.45	3
0	48324	34.45	3
0	48325	34.45	3
0	48326	34.45	3
0	48360	34.5	3
0	48361	34.5	3
0	48362	34.5	3
0	48363	34.5	3
0	48364	34.5	3
0	48365	34.5	3
0	48366	34.5	3
0	48367	34.5	3
0	48408	34.55	3
0	48409	34.55	3
0	48410	34.55	3
0	48411	34.55	3
0	48444	34.6	3
0	48445	34.6	3
0	48446	34.6	3
0	48447	34.6	3
0	48448	34.6	3
0	48449	34.6	3
0	48450	34.6	3
0	48451	34.6	3
0	48492	34.65	3
0	48493	34.65	3
0	48494	34.65	3
0	48495	34.65	3
0	48732	34.7	3
0	48733	34.7	3
0	48734	34.7	3
0	48735	34.7	3
0	48736	34.7	3
0	48737	34.7	3
0	48738	34.7	3
0	48739	34.7	3
0	48852	34.75	3
0	48853	34.75	3
0	48854	34.75	3
0	48855	34.75	3
0	48888	34.8	3
0	48889	34.8	3
0	48890	34.8	3
0	48891	34.8	3
0	48892	34.8	3
0	48893	34.8	3
0	48894	34.8	3
0	48895	34.8	3
0	48936	34.85	3
0	48937	34.85	3
0	48938	34.85	3
0	48939	34.85	3
0	48972	34.9	3
0	48973	34.9	3
0	48974	34.9	3
0	48975	34.9	3
0	48976	34.9	3
0	48977	34.9	3
0	48978	34.9	3
0	48979	34.9	3
0	49020	34.95	3
0	49021	34.95	3
0	49022	34.95	3
0	49023	34.95	3
0	49056	35	3
0	49057	35	3
0	49058	35	3
0	49059	35	3
0	49060	35	3
0	49061	35	3
0	49062	35	3
0	49063	35	3
0	49104	35.05	3
0	49105	35.05	3
0	49106	35.05	3
0	49107	35.05	3
0	49144	35.1	3
0	49145	35.1	3
0	49146	35.1	3
0	49147	35.1	3
0	49148	35.1	3
0	49149	35.1	3
0	49150	35.1	3
0	49151	35.1	3
0	49197	35.15	3
0	49198	35.15	3
0	49199	35.15	3
0	49200	35.15	3
0	49233	35.2	3
0	49234	35.2	3
0	49235	35.2	3
0	49236	35.2	3
0	49237	35.2	3
0	49238	35.2	3
0	49239	35.2	3
0	49240	35.2	3
0	49487	35.25	3
0	49488	35.25	3
0	49489	35.25	3
0	49490	35.25	3
0	49656	35.3	3
0	49657	35.3	3
0	49658	35.3	3
0	49659	35.3	3
0	49660	35.3	3
0	49661	35.3	3
0	49662	35.3	3
0	49663	35.3	3
0	49704	35.35	3
0	49705	35.35	3
0	49706	35.35	3
0	49707	35.35	3
0	49740	35.4	3
0	49741	35.4	3
0	49742	35.4	3
0	49743	35.4	3
0	49744	35.4	3
0	49745	35.4	3
0	49746	35.4	3
0	49747	35.4	3
0	49788	35.45	3
0	49789	35.45	3
0	49790	35.45	3
0	49791	35.45	3
0	49824	35.5	3
0	49825	35.5	3
0	49826	35.5	3
0	49827	35.5	3
0	49828	35.5	3
0	49829	35.5	3
0	49830	35.5	3
0	49831	35.5	3
0	49872	35.55	3
0	49873	35.55	3
0	49874	35.55	3
0	49875	35.55	3
0	49908	35.6	3
0	49909	35.6	3
0	49910	35.6	3
0	49911	35.6	3
0	49912	35.6	3
0	49913	35.6	3
0	49914	35.6	3
0	49915	35.6	3
0	49956	35.65	3
0	49957	35.65	3
0	49958	35.65	3
0	49959	35.65	3
0	49992	35.7	3
0	49993	35.7	3
0	49994	35.7	3
0	49995	35.7	3
0	49996	35.7	3
0	49997	35.7	3
0	49998	35.7	3
0	49999	35.7	3
0	50040	35.75	3
0	50041	35.75	3
0	50042	35.75	3
0	50043	35.75	3
0	50280	35.8	3
0	50281	35.8	3
0	50282	35.8	3
0	50283	35.8	3
0	50284	35.8	3
0	50285	35.8	3
0	50286	35.8	3
0	50287	35.8	3
0	50400	35.85	3
0	50401	35.85	3
0	50402	35.85	3
0	50403	35.85	3
0	50436	35.9	3
0	50437	35.9	3
0	50438	35.9	3
0	50439	35.9	3
0	50440	35.9	3
0	50441	35.9	3
0	50442	35.9	3
0	50443	35.9	3
0	50484	35.95	3
0	50485	35.95	3
0	50486	35.95	3
0	50487	35.95	3
0	50520	36	3
0	50521	36	3
0	50522	36	3
0	50523	36	3
0	50524	36	3
0	50525	36	3
0	50526	36	3
0	50527	36	3
0	50568	36.05	3
0	50569	36.05	3
0	50570	36.05	3
0	50571	36.05	3
0	50608	36.1	3
0	50609	36.1	3
0	50610	36.1	3
0	50611	36.1	3
0	50612	36.1	3
0	50613	36.1	3
0	50614	36.1	3
0	50615	36.1	3
0	50661	36.15	3
0	50662	36.15	3
0	50663	36.15	3
0	50664	36.15	3
0	50697	36.2	3
0	50698	36.2	3
0	50699	36.2	3
0	50700	36.2	3
0	50701	36.2	3
0	50702	36.2	3
0	50703	36.2	3
0	50704	36.2	3
0	50745	36.25	3
0	50746	36.25	3
0	50747	36.25	3
0	50748	36.25	3
0	50781	36.3	3
0	50782	36.3	3
0	50783	36.3	3
0	50784	36.3	3
0	50785	36.3	3
0	50786	36.3	3
0	50787	36.3	3
0	50788	36.3	3
0	51035	36.35	3
0	51036	36.35	3
0	51037	36.35	3
0	51038	36.35	3
0	51204	36.4	3
0	51205	36.4	3
0	51206	36.4	3
0	51207	36.4	3
0	51208	36.4	3
0	51209	36.4	3
0	51210	36.4	3
0	51211	36.4	3
0	51252	36.45	3
0	51253	36.45	3
0	51254	36.45	3
0	51255	36.45	3
0	51288	36.5	3
0	51289	36.5	3
0	51290	36.5	3
0	51291	36.5	3
0	51292	36.5	3
0	51293	36.5	3
0	51294	36.5	3
0	51295	36.5	3
0	51336	36.55	3
0	51337	36.55	3
0	51338	36.55	3
0	51339	36.55	3
0	51372	36.6	3
0	51373	36.6	3
0	51374	36.6	3
0	51375	36.6	3
0	51376	36.6	3
0	51377	36.6	3
0	51378	36.6	3
0	51379	36.6	3
0	51420	36.65	3
0	51421	36.65	3
0	51422	36.65	3
0	51423	36.65	3
0	51456	36.7	3
0	51457	36.7	3
0	51458	36.7	3
0	51459	36.7	3
0	51460	36.7	3
0	51461	36.7	3
0	51462	36.7	3
0	51463	36.7	3
0	51504	36.75	3
0	51505	36.75	3
0	51506	36.75	3
0	51507	36.75	3
0	51540	36.8	3
0	51541	36.8	3
0	51542	36.8	3
0	51543	36.8	3
0	51544	36.8	3
0	51545	36.8	3
0	51546	36.8	3
0	51547	36.8	3
0	51588	36.85	3
0	51589	36.85	3
0	51590	36.85	3
0	51591	36.85	3
0	51828	36.9	3
0	51829	36.9	3
0	51830	36.9	3
0	51831	36.9	3
0	51832	36.9	3
0	51833	36.9	3
0	51834	36.9	3
0	51835	36.9	3
0	51948	36.95	3
0	51949	36.95	3
0	51950	36.95	3
0	51951	36.95	3
0	51987	37	3
0	51988	37	3
0	51989	37	3
0	51990	37	3
0	51991	37	3
0	51992	37	3
0	51993	37	3
0	51994	37	3
0	52035	37.05	3
0	52036	37.05	3
0	52037	37.05	3
0	52038	37.05	3
0	52075	37.1	3
0	52076	37.1	3
0	52077	37.1	3
0	52078	37.1	3
0	52079	37.1	3
0	52080	37.1	3
0	52081	37.1	3
0	52082	37.1	3
0	52128	37.15	3
0	52129	37.15	3
0	52130	37.15	3
0	52131	37.15	3
0	52164	37.2	3
0	52165	37.2	3
0	52166	37.2	3
0	52167	37.2	3
0	52168	37.2	3
0	52169	37.2	3
0	52170	37.2	3
0	52171	37.2	3
0	52212	37.25	3
0	52213	37.25	3
0	52214	37.25	3
0	52215	37.25	3
0	52248	37.3	3
0	52249	37.3	3
0	52250	37.3	3
0	52251	37.3	3
0	52252	37.3	3
0	52253	37.3	3
0	52254	37.3	3
0	52255	37.3	3
0	52296	37.35	3
0	52297	37.35	3
0	52298	37.35	3
0	52299	37.35	3
0	52332	37.4	3
0	52333	37.4	3
0	52334	37.4	3
0	52335	37.4	3
0	52336	37.4	3
0	52337	37.4	3
0	52338	37.4	3
0	52339	37.4	3
0	52586	37.45	3
0	52587	37.45	3
0	52588	37.45	3
0	52589	37.45	3
0	52756	37.5	3
0	52757	37.5	3
0	52758	37.5	3
0	52759	37.5	3
0	52760	37.5	3
0	52761	37.5	3
0	52762	37.5	3
0	52763	37.5	3
0	52804	37.55	3
0	52805	37.55	3
0	52806	37.55	3
0	52807	37.55	3
0	52840	37.6	3
0	52841	37.6	3
0	52842	37.6	3
0	52843	37.6	3
0	52844	37.6	3
0	52845	37.6	3
0	52846	37.6	3
0	52847	37.6	3
0	52888	37.65	3
0	52889	37.65	3
0	52890	37.65	3
0	52891	37.65	3
0	52924	37.7	3
0	52925	37.7	3
0	52926	37.7	3
0	52927	37.7	3
0	52928	37.7	3
0	52929	37.7	3
0	52930	37.7	3
0	52931	37.7	3
0	52972	37.75	3
0	52973	37.75	3
0	52974	37.75	3
0	52975	37.75	3
0	53008	37.8	3
0	53009	37.8	3
0	53010	37.8	3
0	53011	37.8	3
0	53012	37.8	3
0	53013	37.8	3
0	53014	37.8	3
0	53015	37.8	3
0	53056	37.85	3
0	53057	37.85	3
0	53058	37.85	3
0	53059	37.85	3
0	53092	37.9	3
0	53093	37.9	3
0	53094	37.9	3
0	53095	37.9	3
0	53096	37.9	3
0	53097	37.9	3
0	53098	37.9	3
0	53099	37.9	3
0	53140	37.95	3
0	53141	37.95	3
0	53142	37.95	3
0	53143	37.95	3
0	53384	38	3
0	53385	38	3
0	53386	38	3
0	53387	38	3
0	53388	38	3
0	53389	38	3
0	53390	38	3
0	53391	38	3
0	53504	38.05	3
0	53505	38.05	3
0	53506	38.05	3
0	53507	38.05	3
0	53544	38.1	3
0	53545	38.1	3
0	53546	38.1	3
0	53547	38.1	3
0	53548	38.1	3
0	53549	38.1	3
0	53550	38.1	3
0	53551	38.1	3
0	53597	38.15	3
0	53598	38.15	3
0	53599	38.15	3
0	53600	38.15	3
0	53633	38.2	3
0	53634	38.2	3
0	53635	38.2	3
0	53636	38.2	3
0	53637	38.2	3
0	53638	38.2	3
0	53639	38.2	3
0	53640	38.2	3
0	53681	38.25	3
0	53682	38.25	3
0	53683	38.25	3
0	53684	38.25	3
0	53717	38.3	3
0	53718	38.3	3
0	53719	38.3	3
0	53720	38.3	3
0	53721	38.3	3
0	53722	38.3	3
0	53723	38.3	3
0	53724	38.3	3
0	53765	38.35	3
0	53766	38.35	3
0	53767	38.35	3
0	53768	38.35	3
0	53801	38.4	3
0	53802	38.4	3
0	53803	38.4	3
0	53804	38.4	3
0	53805	38.4	3
0	53806	38.4	3
0	53807	38.4	3
0	53808	38.4	3
0	53849	38.45	3
0	53850	38.45	3
0	53851	38.45	3
0	53852	38.45	3
0	53886	38.5	3
0	53887	38.5	3
0	53888	38.5	3
0	53889	38.5	3
0	53890	38.5	3
0	53891	38.5	3
0	53892	38.5	3
0	53893	38.5	3
0	54140	38.55	3
0	54141	38.55	3
0	54142	38.55	3
0	54143	38.55	3
0	54309	38.6	3
0	54310	38.6	3
0	54311	38.6	3
0	54312	38.6	3
0	54313	38.6	3
0	54314	38.6	3
0	54315	38.6	3
0	54316	38.6	3
0	54357	38.65	3
0	54358	38.65	3
0	54359	38.65	3
0	54360	38.65	3
0	54393	38.7	3
0	54394	38.7	3
0	54395	38.7	3
0	54396	38.7	3
0	54397	38.7	3
0	54398	38.7	3
0	54399	38.7	3
0	54400	38.7	3
0	54441	38.75	3
0	54442	38.75	3
0	54443	38.75	3
0	54444	38.75	3
0	54477	38.8	3
0	54478	38.8	3
0	54479	38.8	3
0	54480	38.8	3
0	54481	38.8	3
0	54482	38.8	3
0	54483	38.8	3
0	54484	38.8	3
0	54525	38.85	3
0	54526	38.85	3
0	54527	38.85	3
0	54528	38.85	3
0	54561	38.9	3
0	54562	38.9	3
0	54563	38.9	3
0	54564	38.9	3
0	54565	38.9	3
0	54566	38.9	3
0	54567	38.9	3
0	54568	38.9	3
0	54609	38.95	3
0	54610	38.95	3
0	54611	38.95	3
0	54612	38.95	3
0	54652	39	3
0	54653	39	3
0	54654	39	3
0	54655	39	3
0	54656	39	3
0	54657	39	3
0	54658	39	3
0	54659	39	3
0	54700	39.05	3
0	54701	39.05	3
0	54702	39.05	3
0	54703	39.05	3
0	54944	39.1	3
0	54945	39.1	3
0	54946	39.1	3
0	54947	39.1	3
0	54948	39.1	3
0	54949	39.1	3
0	54950	39.1	3
0	54951	39.1	3
0	55111	39.15	3
0	55112	39.15	3
0	55113	39.15	3
0	55114	39.15	3
0	55147	39.2	3
0	55148	39.2	3
0	55149	39.2	3
0	55150	39.2	3
0	55151	39.2	3
0	55152	39.2	3
0	55153	39.2	3
0	55154	39.2	3
0	55195	39.25	3
0	55196	39.25	3
0	55197	39.25	3
0	55198	39.25	3
0	55231	39.3	3
0	55232	39.3	3
0	55233	39.3	3
0	55234	39.3	3
0	55235	39.3	3
0	55236	39.3	3
0	55237	39.3	3
0	55238	39.3	3
0	55279	39.35	3
0	55280	39.35	3
0	55281	39.35	3
0	55282	39.35	3
0	55315	39.4	3
0	55316	39.4	3
0	55317	39.4	3
0	55318	39.4	3
0	55319	39.4	3
0	55320	39.4	3
0	55321	39.4	3
0	55322	39.4	3
0	55363	39.45	3
0	55364	39.45	3
0	55365	39.45	3
0	55366	39.45	3
0	55400	39.5	3
0	55401	39.5	3
0	55402	39.5	3
0	55403	39.5	3
0	55404	39.5	3
0	55405	39.5	3
0	55406	39.5	3
0	55407	39.5	3
0	55448	39.55	3
0	55449	39.55	3
0	55450	39.55	3
0	55451	39.55	3
0	55484	39.6	3
0	55485	39.6	3
0	55486	39.6	3
0	55487	39.6	3
0	55488	39.6	3
0	55489	39.6	3
0	55490	39.6	3
0	55491	39.6	3
0	55738	39.65	3
0	55739	39.65	3
0	55740	39.65	3
0	55741	39.65	3
0	55865	39.7	3
0	55866	39.7	3
0	55867	39.7	3
0	55868	39.7	3
0	55869	39.7	3
0	55870	39.7	3
0	55871	39.7	3
0	55872	39.7	3
0	55913	39.75	3
0	55914	39.75	3
0	55915	39.75	3
0	55916	39.75	3
0	55949	39.8	3
0	55950	39.8	3
0	55951	39.8	3
0	55952	39.8	3
0	55953	39.8	3
0	55954	39.8	3
0	55955	39.8	3
0	55956	39.8	3
0	55997	39.85	3
0	55998	39.85	3
0	55999	39.85	3
0	56000	39.85	3
0	56033	39.9	3
0	56034	39.9	3
0	56035	39.9	3
0	56036	39.9	3
0	56037	39.9	3
0	56038	39.9	3
0	56039	39.9	3
0	56040	39.9	3
0	56081	39.95	3
0	56082	39.95	3
0	56083	39.95	3
0	56084	39.95	3
0	56119	40	3
0	56120	40	3
0	56121	40	3
0	56122	40	3
0	56123	40	3
0	56124	40	3
0	56125	40	3
0	56126	40	3
0	56167	40.05	3
0	56168	40.05	3
0	56169	40.05	3
0	56170	40.05	3
0	56207	40.1	3
0	56208	40.1	3
0	56209	40.1	3
0	56210	40.1	3
0	56211	40.1	3
0	56212	40.1	3
0	56213	40.1	3
0	56214	40.1	3
0	56260	40.15	3
0	56261	40.15	3
0	56262	40.15	3
0	56263	40.15	3
0	56502	40.2	3
0	56503	40.2	3
0	56504	40.2	3
0	56505	40.2	3
0	56506	40.2	3
0	56507	40.2	3
0	56508	40.2	3
0	56509	40.2	3
0	56683	40.25	3
0	56684	40.25	3
0	56685	40.25	3
0	56686	40.25	3
0	56719	40.3	3
0	56720	40.3	3
0	56721	40.3	3
0	56722	40.3	3
0	56723	40.3	3
0	56724	40.3	3
0	56725	40.3	3
0	56726	40.3	3
0	56767	40.35	3
0	56768	40.35	3
0	56769	40.35	3
0	56770	40.35	3
0	56803	40.4	3
0	56804	40.4	3
0	56805	40.4	3
0	56806	40.4	3
0	56807	40.4	3
0	56808	40.4	3
0	56809	40.4	3
0	56810	40.4	3
0	56851	40.45	3
0	56852	40.45	3
0	56853	40.45	3
0	56854	40.45	3
0	56887	40.5	3
0	56888	40.5	3
0	56889	40.5	3
0	56890	40.5	3
0	56891	40.5	3
0	56892	40.5	3
0	56893	40.5	3
0	56894	40.5	3
0	56935	40.55	3
0	56936	40.55	3
0	56937	40.55	3
0	56938	40.55	3
0	56971	40.6	3
0	56972	40.6	3
0	56973	40.6	3
0	56974	40.6	3
0	56975	40.6	3
0	56976	40.6	3
0	56977	40.6	3
0	56978	40.6	3
0	57019	40.65	3
0	57020	40.65	3
0	57021	40.65	3
0	57022	40.65	3
0	57055	40.7	3
0	57056	40.7	3
0	57057	40.7	3
0	57058	40.7	3
0	57059	40.7	3
0	57060	40.7	3
0	57061	40.7	3
0	57062	40.7	3
0	57307	40.75	3
0	57308	40.75	3
0	57309	40.75	3
0	57310	40.75	3
0	57415	40.8	3
0	57416	40.8	3
0	57417	40.8	3
0	57418	40.8	3
0	57419	40.8	3
0	57420	40.8	3
0	57421	40.8	3
0	57422	40.8	3
0	57463	40.85	3
0	57464	40.85	3
0	57465	40.85	3
0	57466	40.85	3
0	57499	40.9	3
0	57500	40.9	3
0	57501	40.9	3
0	57502	40.9	3
0	57503	40.9	3
0	57504	40.9	3
0	57505	40.9	3
0	57506	40.9	3
0	57547	40.95	3
0	57548	40.95	3
0	57549	40.95	3
0	57550	40.95	3
0	57583	41	3
0	57584	41	3
0	57585	41	3
0	57586	41	3
0	57587	41	3
0	57588	41	3
0	57589	41	3
0	57590	41	3
0	57631	41.05	3
0	57632	41.05	3
0	57633	41.05	3
0	57634	41.05	3
0	57671	41.1	3
0	57672	41.1	3
0	57673	41.1	3
0	57674	41.1	3
0	57675	41.1	3
0	57676	41.1	3
0	57677	41.1	3
0	57678	41.1	3
0	57724	41.15	3
0	57725	41.15	3
0	57726	41.15	3
0	57727	41.15	3
0	57760	41.2	3
0	57761	41.2	3
0	57762	41.2	3
0	57763	41.2	3
0	57764	41.2	3
0	57765	41.2	3
0	57766	41.2	3
0	57767	41.2	3
0	57808	41.25	3
0	57809	41.25	3
0	57810	41.25	3
0	57811	41.25	3
0	58050	41.3	3
0	58051	41.3	3
0	58052	41.3	3
0	58053	41.3	3
0	58054	41.3	3
0	58055	41.3	3
0	58056	41.3	3
0	58057	41.3	3
0	58231	41.35	3
0	58232	41.35	3
0	58233	41.35	3
0	58234	41.35	3
0	58267	41.4	3
0	58268	41.4	3
0	58269	41.4	3
0	58270	41.4	3
0	58271	41.4	3
0	58272	41.4	3
0	58273	41.4	3
0	58274	41.4	3
0	58315	41.45	3
0	58316	41.45	3
0	58317	41.45	3
0	58318	41.45	3
0	58351	41.5	3
0	58352	41.5	3
0	58353	41.5	3
0	58354	41.5	3
0	58355	41.5	3
0	58356	41.5	3
0	58357	41.5	3
0	58358	41.5	3
0	58399	41.55	3
0	58400	41.55	3
0	58401	41.55	3
0	58402	41.55	3
0	58435	41.6	3
0	58436	41.6	3
0	58437	41.6	3
0	58438	41.6	3
0	58439	41.6	3
0	58440	41.6	3
0	58441	41.6	3
0	58442	41.6	3
0	58483	41.65	3
0	58484	41.65	3
0	58485	41.65	3
0	58486	41.65	3
0	58519	41.7	3
0	58520	41.7	3
0	58521	41.7	3
0	58522	41.7	3
0	58523	41.7	3
0	58524	41.7	3
0	58525	41.7	3
0	58526	41.7	3
0	58567	41.75	3
0	58568	41.75	3
0	58569	41.75	3
0	58570	41.75	3
0	58603	41.8	3
0	58604	41.8	3
0	58605	41.8	3
0	58606	41.8	3
0	58607	41.8	3
0	58608	41.8	3
0	58609	41.8	3
0	58610	41.8	3
0	58855	41.85	3
0	58856	41.85	3
0	58857	41.85	3
0	58858	41.85	3
0	58963	41.9	3
0	58964	41.9	3
0	58965	41.9	3
0	58966	41.9	3
0	58967	41.9	3
0	58968	41.9	3
0	58969	41.9	3
0	58970	41.9	3
0	59011	41.95	3
0	59012	41.95	3
0	59013	41.95	3
0	59014	41.95	3
0	59050	42	3
0	59051	42	3
0	59052	42	3
0	59053	42	3
0	59054	42	3
0	59055	42	3
0	59056	42	3
0	59057	42	3
0	59098	42.05	3
0	59099	42.05	3
0	59100	42.05	3
0	59101	42.05	3
0	59138	42.1	3
0	59139	42.1	3
0	59140	42.1	3
0	59141	42.1	3
0	59142	42.1	3
0	59143	42.1	3
0	59144	42.1	3
0	59145	42.1	3
0	59191	42.15	3
0	59192	42.15	3
0	59193	42.15	3
0	59194	42.15	3
0	59227	42.2	3
0	59228	42.2	3
0	59229	42.2	3
0	59230	42.2	3
0	59231	42.2	3
0	59232	42.2	3
0	59233	42.2	3
0	59234	42.2	3
0	59275	42.25	3
0	59276	42.25	3
0	59277	42.25	3
0	59278	42.25	3
0	59311	42.3	3
0	59312	42.3	3
0	59313	42.3	3
0	59314	42.3	3
0	59315	42.3	3
0	59316	42.3	3
0	59317	42.3	3
0	59318	42.3	3
0	59359	42.35	3
0	59360	42.35	3
0	59361	42.35	3
0	59362	42.35	3
0	59601	42.4	3
0	59602	42.4	3
0	59603	42.4	3
0	59604	42.4	3
0	59605	42.4	3
0	59606	42.4	3
0	59607	42.4	3
0	59608	42.4	3
0	59782	42.45	3
0	59783	42.45	3
0	59784	42.45	3
0	59785	42.45	3
0	59819	42.5	3
0	59820	42.5	3
0	59821	42.5	3
0	59822	42.5	3
0	59823	42.5	3
0	59824	42.5	3
0	59825	42.5	3
0	59826	42.5	3
0	59867	42.55	3
0	59868	42.55	3
0	59869	42.55	3
0	59870	42.55	3
0	59903	42.6	3
0	59904	42.6	3
0	59905	42.6	3
0	59906	42.6	3
0	59907	42.6	3
0	59908	42.6	3
0	59909	42.6	3
0	59910	42.6	3
0	59951	42.65	3
0	59952	42.65	3
0	59953	42.65	3
0	59954	42.65	3
0	59987	42.7	3
0	59988	42.7	3
0	59989	42.7	3
0	59990	42.7	3
0	59991	42.7	3
0	59992	42.7	3
0	59993	42.7	3
0	59994	42.7	3
0	60035	42.75	3
0	60036	42.75	3
0	60037	42.75	3
0	60038	42.75	3
0	60071	42.8	3
0	60072	42.8	3
0	60073	42.8	3
0	60074	42.8	3
0	60075	42.8	3
0	60076	42.8	3
0	60077	42.8	3
0	60078	42.8	3
0	60119	42.85	3
0	60120	42.85	3
0	60121	42.85	3
0	60122	42.85	3
0	60155	42.9	3
0	60156	42.9	3
0	60157	42.9	3
0	60158	42.9	3
0	60159	42.9	3
0	60160	42.9	3
0	60161	42.9	3
0	60162	42.9	3
0	60407	42.95	3
0	60408	42.95	3
0	60409	42.95	3
0	60410	42.95	3
0	60519	43	3
0	60520	43	3
0	60521	43	3
0	60522	43	3
0	60523	43	3
0	60524	43	3
0	60525	43	3
0	60526	43	3
0	60567	43.05	3
0	60568	43.05	3
0	60569	43.05	3
0	60570	43.05	3
0	60607	43.1	3
0	60608	43.1	3
0	60609	43.1	3
0	60610	43.1	3
0	60611	43.1	3
0	60612	43.1	3
0	60613	43.1	3
0	60614	43.1	3
0	60660	43.15	3
0	60661	43.15	3
0	60662	43.15	3
0	60663	43.15	3
0	60696	43.2	3
0	60697	43.2	3
[...]
1	91814	65.1	-nan
1	91815	65.1	-nan
1	93280	66.1	-nan
1	93281	66.1	-nan
1	93282	66.1	-nan
1	93283	66.1	-nan
1	94473	67.1	-nan
1	94474	67.1	-nan
1	94475	67.1	-nan
1	94476	67.1	-nan
1	95942	68.1	-nan
1	95943	68.1	-nan
1	95944	68.1	-nan
1	95945	68.1	-nan
1	97414	69.1	-nan
1	97415	69.1	-nan
1	97416	69.1	-nan
1	97417	69.1	-nan
1	98883	70.1	-nan
1	98884	70.1	-nan
1	98885	70.1	-nan
1	98886	70.1	-nan
1	100351	71.1	-nan
1	100352	71.1	-nan
1	100353	71.1	-nan
1	100354	71.1	-nan
1	101750	72.1	-nan
1	101751	72.1	-nan
1	101752	72.1	-nan
1	101753	72.1	-nan
1	103017	73.1	-nan
1	103018	73.1	-nan
1	103019	73.1	-nan
1	103020	73.1	-nan
1	104489	74.1	-nan
1	104490	74.1	-nan
1	104491	74.1	-nan
1	104492	74.1	-nan
1	105958	75.1	-nan
1	105959	75.1	-nan
1	105960	75.1	-nan
1	105961	75.1	-nan
1	107426	76.1	-nan
1	107427	76.1	-nan
1	107428	76.1	-nan
1	107429	76.1	-nan
1	108897	77.1	-nan
1	108898	77.1	-nan
1	108899	77.1	-nan
1	108900	77.1	-nan
1	110092	78.1	-nan
1	110093	78.1	-nan
1	110094	78.1	-nan
1	110095	78.1	-nan
1	111564	79.1	-nan
1	111565	79.1	-nan
1	111566	79.1	-nan
1	111567	79.1	-nan
1	113033	80.1	-nan
1	113034	80.1	-nan
1	113035	80.1	-nan
1	113036	80.1	-nan
1	114501	81.1	-nan
1	114502	81.1	-nan
1	114503	81.1	-nan
1	114504	81.1	-nan
1	115952	82.1	-nan
1	115953	82.1	-nan
1	115954	82.1	-nan
1	115955	82.1	-nan
1	117333	83.1	-nan
1	117334	83.1	-nan
1	117335	83.1	-nan
1	117336	83.1	-nan
1	118601	84.1	-nan
1	118602	84.1	-nan
1	118603	84.1	-nan
1	118604	84.1	-nan
1	120070	85.1	-nan
1	120071	85.1	-nan
1	120072	85.1	-nan
1	120073	85.1	-nan
1	121538	86.1	-nan
1	121539	86.1	-nan
1	121540	86.1	-nan
1	121541	86.1	-nan
1	123009	87.1	-nan
1	123010	87.1	-nan
1	123011	87.1	-nan
1	123012	87.1	-nan
1	124484	88.1	-nan
1	124485	88.1	-nan
1	124486	88.1	-nan
1	124487	88.1	-nan
1	125683	89.1	-nan
1	125684	89.1	-nan
1	125685	89.1	-nan
1	125686	89.1	-nan
1	127153	90.1	-nan
1	127154	90.1	-nan
1	127155	90.1	-nan
1	127156	90.1	-nan
1	128621	91.1	-nan
1	128622	91.1	-nan
1	128623	91.1	-nan
1	128624	91.1	-nan
1	130092	92.1	-nan
1	130093	92.1	-nan
1	130094	92.1	-nan
1	130095	92.1	-nan
1	131567	93.1	-nan
1	131568	93.1	-nan
1	131569	93.1	-nan
1	131570	93.1	-nan
1	132972	94.1	-nan
1	132973	94.1	-nan
1	132974	94.1	-nan
1	132975	94.1	-nan
1	134240	95.1	-nan
1	134241	95.1	-nan
1	134242	95.1	-nan
1	134243	95.1	-nan
1	135708	96.1	-nan
1	135709	96.1	-nan
1	135710	96.1	-nan
1	135711	96.1	-nan
1	137179	97.1	-nan
1	137180	97.1	-nan
1	137181	97.1	-nan
1	137182	97.1	-nan
1	138654	98.1	-nan
1	138655	98.1	-nan
1	138656	98.1	-nan
1	138657	98.1	-nan
1	140131	99.1	-nan
1	140132	99.1	-nan
1	140133	99.1	-nan
1	140134	99.1	-nan
2	8755	6.67221835206	141
2	8757	6.67221835206	282
2	8769	6.672325864115	423
2	8809	6.68605835206	564
2	8811	6.68605835206	705
2	8823	6.686165864115	846
2	8863	6.69989835206	987
2	8865	6.69989835206	1128
2	8925	6.700005864115	1269
2	8965	6.71373835206	1410
2	8967	6.71373835206	1551
2	8979	6.713845864115	1692
2	9019	6.72757835206	1833
2	9021	6.72757835206	1974
2	9033	6.727685864115	2115
2	9073	6.74141835206	2256
2	9075	6.74141835206	2397
2	9087	6.741525864115	2538
2	9163	6.75525835206	2679
2	9165	6.75525835206	2820
2	9177	6.755365864115	2961
2	9896	7.22221835206	3102
2	9898	7.22221835206	3243
2	9912	7.222325864115	3384
2	11445	8.32221835206	3525
2	11447	8.32221835206	3666
2	11461	8.322325864115	3807
2	12993	9.42221835206	3948
2	12995	9.42221835206	4089
2	13009	9.422325864115	4230
2	14541	10.52221835206	4371
2	14543	10.52221835206	4512
2	14557	10.522325864115	4653
2	16089	11.62221835206	4794
2	16091	11.62221835206	4935
2	16105	11.622325864115	5076
2	16896	12.17221835206	5217
2	16898	12.17221835206	5358
2	16912	12.172325864115	5499
2	18448	13.27221835206	5640
2	18450	13.27221835206	5781
2	18464	13.272325864115	5922
2	20000	14.37221835206	6063
2	20002	14.37221835206	6204
2	20016	14.372325864115	6345
2	21549	15.47221835206	6486
2	21551	15.47221835206	6627
2	21565	15.472325864115	6768
2	23097	16.57221835206	6909
2	23099	16.57221835206	7050
2	23113	16.572325864115	7191
2	23908	17.12221835206	7332
2	23919	17.122325864115	7473
2	24681	17.67221835206	7614
2	25468	18.22221835206	7755
2	25470	18.22221835206	7896
2	25484	18.222325864115	8037
2	27020	19.32221835206	8178
2	27022	19.32221835206	8319
2	27036	19.322325864115	8460
2	28569	20.42221835206	8601
2	28571	20.42221835206	8742
2	28585	20.422325864115	8883
2	30117	21.52221835206	9024
2	30119	21.52221835206	9165
2	30133	21.522325864115	9306
2	31669	22.62221835206	9447
2	31671	22.62221835206	9588
2	31685	22.622325864115	9729
2	32476	23.17221835206	9870
2	32478	23.17221835206	10011
2	32492	23.172325864115	10152
2	34028	24.27221835206	10293
2	34030	24.27221835206	10434
2	34044	24.272325864115	10575
2	35577	25.37221835206	10716
2	35579	25.37221835206	10857
2	35593	25.372325864115	10998
2	37125	26.47221835206	11139
2	37127	26.47221835206	11280
2	37141	26.472325864115	11421
2	38677	27.57221835206	11562
2	38679	27.57221835206	11703
2	38693	27.572325864115	11844
2	39489	28.12221835206	11985
2	39500	28.122325864115	12126
2	40262	28.67221835206	12267
2	41051	29.22221835206	12408
2	41053	29.22221835206	12549
2	41067	29.222325864115	12690
2	42600	30.32221835206	12831
2	42602	30.32221835206	12972
2	42616	30.322325864115	13113
2	44148	31.42221835206	13254
2	44150	31.42221835206	13395
2	44164	31.422325864115	13536
2	45700	32.52221835206	13677
2	45702	32.52221835206	13818
2	45716	32.522325864115	13959
2	47253	33.62221835206	14100
2	47255	33.62221835206	14241
2	47269	33.622325864115	14382
2	48062	34.17221835206	14523
2	48064	34.17221835206	14664
2	48078	34.172325864115	14805
2	49611	35.27221835206	14946
2	49613	35.27221835206	15087
2	49627	35.272325864115	15228
2	51159	36.37221835206	15369
2	51161	36.37221835206	15510
2	51175	36.372325864115	15651
2	52710	37.47221835206	15792
2	52712	37.47221835206	15933
2	52726	37.472325864115	16074
2	54264	38.57221835206	16215
2	54266	38.57221835206	16356
2	54280	38.572325864115	16497
2	55079	39.12221835206	16638
2	55090	39.122325864115	16779
2	55852	39.67221835206	16920
2	56638	40.22221835206	17061
2	56640	40.22221835206	17202
2	56654	40.222325864115	17343
2	58186	41.32221835206	17484
2	58188	41.32221835206	17625
2	58202	41.322325864115	17766
2	59737	42.42221835206	17907
2	59739	42.42221835206	18048
2	59753	42.422325864115	18189
2	61291	43.52221835206	18330
2	61293	43.52221835206	18471
2	61307	43.522325864115	18612
2	62847	44.62221835206	18753
2	62849	44.62221835206	18894
2	62863	44.622325864115	19035
2	63653	45.17221835206	19176
2	63655	45.17221835206	19317
2	63669	45.172325864115	19458
2	65201	46.27221835206	19599
2	65203	46.27221835206	19740
2	65217	46.272325864115	19881
2	66752	47.37221835206	20022
2	66754	47.37221835206	20163
2	66768	47.372325864115	20304
2	68305	48.47221835206	20445
2	68307	48.47221835206	20586
2	68321	48.472325864115	20727
2	69862	49.57221835206	20868
2	69864	49.57221835206	21009
2	69878	49.572325864115	21150
2	70674	50.12221835206	21291
2	70685	50.122325864115	21432
2	71446	50.67221835206	21573
2	72232	51.22221835206	21714
2	72234	51.22221835206	21855
2	72248	51.222325864115	21996
2	73783	52.32221835206	22137
2	73785	52.32221835206	22278
2	73799	52.322325864115	22419
2	75336	53.42221835206	22560
2	75338	53.42221835206	22701
2	75352	53.422325864115	22842
2	76893	54.52221835206	22983
2	76895	54.52221835206	23124
2	76909	54.522325864115	23265
2	78445	55.62221835206	23406
2	78447	55.62221835206	23547
2	78461	55.622325864115	23688
2	79251	56.17221835206	23829
2	79253	56.17221835206	23970
2	79267	56.172325864115	24111
2	80802	57.27221835206	24252
2	80804	57.27221835206	24393
2	80818	57.272325864115	24534
2	82355	58.37221835206	24675
2	82357	58.37221835206	24816
2	82371	58.372325864115	24957
2	83911	59.47221835206	25098
2	83913	59.47221835206	25239
2	83927	59.472325864115	25380
2	85464	60.57221835206	25521
2	85466	60.57221835206	25662
2	85480	60.572325864115	25803
2	86276	61.12221835206	25944
2	86287	61.122325864115	26085
2	87048	61.67221835206	26226
2	87837	62.22221835206	26367
2	87839	62.22221835206	26508
2	87853	62.222325864115	26649
2	89390	63.32221835206	26790
2	89392	63.32221835206	26931
2	89406	63.322325864115	27072
2	90946	64.42221835206	27213
2	90948	64.42221835206	27354
2	90962	64.422325864115	27495
2	92499	65.52221835206	27636
2	92501	65.52221835206	27777
2	92515	65.522325864115	27918
2	94051	66.62221835206	28059
2	94053	66.62221835206	28200
2	94067	66.622325864115	28341
2	94860	67.17221835206	28482
2	94862	67.17221835206	28623
2	94876	67.172325864115	28764
2	96413	68.27221835206	28905
2	96415	68.27221835206	29046
2	96429	68.272325864115	29187
2	97969	69.37221835206	29328
2	97971	69.37221835206	29469
2	97985	69.372325864115	29610
2	99522	70.47221835206	29751
2	99524	70.47221835206	29892
2	99538	70.472325864115	30033
2	101074	71.57221835206	30174
2	101076	71.57221835206	30315
2	101090	71.572325864115	30456
2	101889	72.12221835206	30597
2	101900	72.122325864115	30738
2	102662	72.67221835206	30879
2	103452	73.22221835206	31020
2	103454	73.22221835206	31161
2	103468	73.222325864115	31302
2	105008	74.32221835206	31443
2	105010	74.32221835206	31584
2	105024	74.322325864115	31725
2	106561	75.42221835206	31866
2	106563	75.42221835206	32007
2	106577	75.422325864115	32148
2	108113	76.52221835206	32289
2	108115	76.52221835206	32430
2	108129	76.522325864115	32571
2	109669	77.62221835206	32712
2	109671	77.62221835206	32853
2	109685	77.622325864115	32994
2	110479	78.17221835206	33135
2	110481	78.17221835206	33276
2	110495	78.172325864115	33417
2	112035	79.27221835206	33558
2	112037	79.27221835206	33699
2	112051	79.272325864115	33840
2	113588	80.37221835206	33981
2	113590	80.37221835206	34122
2	113604	80.372325864115	34263
2	115133	81.47221835206	34404
2	115144	81.472325864115	34545
2	116672	82.57221835206	34686
2	116680	82.57223748641	34827
2	117475	83.12223748641	34968
2	117483	83.122280751662	35109
2	118245	83.67221835206	35250
2	119033	84.22221835206	35391
2	119044	84.22223748641	35532
2	119052	84.222280751662	35673
2	120586	85.32221835206	35814
2	120597	85.32223748641	35955
2	120605	85.322280751662	36096
2	122138	86.42221835206	36237
2	122149	86.42223748641	36378
2	122157	86.422280751662	36519
2	123694	87.52221835206	36660
2	123705	87.52223748641	36801
2	123713	87.522280751662	36942
2	125254	88.62221835206	37083
2	125265	88.62223748641	37224
2	125273	88.622280751662	37365
2	126067	89.17221835206	37506
2	126078	89.17223748641	37647
2	126086	89.172280751662	37788
2	127621	90.27221835206	37929
2	127632	90.27223748641	38070
2	127640	90.272280751662	38211
2	129173	91.37221835206	38352
2	129184	91.37223748641	38493
2	129192	91.372280751662	38634
2	130728	92.47221835206	38775
2	130739	92.47223748641	38916
2	130747	92.472280751662	39057
2	132289	93.57221835206	39198
2	132300	93.57223748641	39339
2	132308	93.572280751662	39480
2	133114	94.12223748641	39621
2	133122	94.122280751662	39762
2	133885	94.67221835206	39903
2	134672	95.22221835206	40044
2	134683	95.22223748641	40185
2	134691	95.222280751662	40326
2	136224	96.32221835206	40467
2	136235	96.32223748641	40608
2	136243	96.322280751662	40749
2	137779	97.42221835206	40890
2	137790	97.42223748641	41031
2	137798	97.422280751662	41172
2	139340	98.52221835206	41313
2	139351	98.52223748641	41454
2	139359	98.522280751662	41595
2	140901	99.62221835206	41736
2	140912	99.62223748641	41877
2	140920	99.622280751662	42018
3	8755	6.67221835206	141
3	8757	6.67221835206	282
3	8769	6.672325864115	423
3	8809	6.68605835206	564
3	8811	6.68605835206	705
3	8823	6.686165864115	846
3	8863	6.69989835206	987
3	8865	6.69989835206	1128
3	8925	6.700005864115	1269
3	8965	6.71373835206	1410
3	8967	6.71373835206	1551
3	8979	6.713845864115	1692
3	9019	6.72757835206	1833
3	9021	6.72757835206	1974
3	9033	6.727685864115	2115
3	9073	6.74141835206	2256
3	9075	6.74141835206	2397
3	9087	6.741525864115	2538
3	9163	6.75525835206	2679
3	9165	6.75525835206	2820
3	9177	6.755365864115	2961
3	9896	7.22221835206	3102
3	9898	7.22221835206	3243
3	9912	7.222325864115	3384
3	11445	8.32221835206	3525
3	11447	8.32221835206	3666
3	11461	8.322325864115	3807
3	12993	9.42221835206	3948
3	12995	9.42221835206	4089
3	13009	9.422325864115	4230
3	14541	10.52221835206	4371
3	14543	10.52221835206	4512
3	14557	10.522325864115	4653
3	16089	11.62221835206	4794
3	16091	11.62221835206	4935
3	16105	11.622325864115	5076
3	16896	12.17221835206	5217
3	16898	12.17221835206	5358
3	16912	12.172325864115	5499
3	18448	13.27221835206	5640
3	18450	13.27221835206	5781
3	18464	13.272325864115	5922
3	20000	14.37221835206	6063
3	20002	14.37221835206	6204
3	20016	14.372325864115	6345
3	21549	15.47221835206	6486
3	21551	15.47221835206	6627
3	21565	15.472325864115	6768
3	23097	16.57221835206	6909
3	23099	16.57221835206	7050
3	23113	16.572325864115	7191
3	23908	17.12221835206	7332
3	23919	17.122325864115	7473
3	24681	17.67221835206	7614
3	25468	18.22221835206	7755
3	25470	18.22221835206	7896
3	25484	18.222325864115	8037
3	27020	19.32221835206	8178
3	27022	19.32221835206	8319
3	27036	19.322325864115	8460
3	28569	20.42221835206	8601
3	28571	20.42221835206	8742
3	28585	20.422325864115	8883
3	30117	21.52221835206	9024
3	30119	21.52221835206	9165
3	30133	21.522325864115	9306
3	31669	22.62221835206	9447
3	31671	22.62221835206	9588
3	31685	22.622325864115	9729
3	32476	23.17221835206	9870
3	32478	23.17221835206	10011
3	32492	23.172325864115	10152
3	34028	24.27221835206	10293
3	34030	24.27221835206	10434
3	34044	24.272325864115	10575
3	35577	25.37221835206	10716
3	35579	25.37221835206	10857
3	35593	25.372325864115	10998
3	37125	26.47221835206	11139
3	37127	26.47221835206	11280
3	37141	26.472325864115	11421
3	38677	27.57221835206	11562
3	38679	27.57221835206	11703
3	38693	27.572325864115	11844
3	39489	28.12221835206	11985
3	39500	28.122325864115	12126
3	40262	28.67221835206	12267
3	41051	29.22221835206	12408
3	41053	29.22221835206	12549
3	41067	29.222325864115	12690
3	42600	30.32221835206	12831
3	42602	30.32221835206	12972
3	42616	30.322325864115	13113
3	44148	31.42221835206	13254
3	44150	31.42221835206	13395
3	44164	31.422325864115	13536
3	45700	32.52221835206	13677
3	45702	32.52221835206	13818
3	45716	32.522325864115	13959
3	47253	33.62221835206	14100
3	47255	33.62221835206	14241
3	47269	33.622325864115	14382
3	48062	34.17221835206	14523
3	48064	34.17221835206	14664
3	48078	34.172325864115	14805
3	49611	35.27221835206	14946
3	49613	35.27221835206	15087
3	49627	35.272325864115	15228
3	51159	36.37221835206	15369
3	51161	36.37221835206	15510
3	51175	36.372325864115	15651
3	52710	37.47221835206	15792
3	52712	37.47221835206	15933
3	52726	37.472325864115	16074
3	54264	38.57221835206	16215
3	54266	38.57221835206	16356
3	54280	38.572325864115	16497
3	55079	39.12221835206	16638
3	55090	39.122325864115	16779
3	55852	39.67221835206	16920
3	56638	40.22221835206	17061
3	56640	40.22221835206	17202
3	56654	40.222325864115	17343
3	58186	41.32221835206	17484
3	58188	41.32221835206	17625
3	58202	41.322325864115	17766
3	59737	42.42221835206	17907
3	59739	42.42221835206	18048
3	59753	42.422325864115	18189
3	61291	43.52221835206	18330
3	61293	43.52221835206	18471
3	61307	43.522325864115	18612
3	62847	44.62221835206	18753
3	62849	44.62221835206	18894
3	62863	44.622325864115	19035
3	63653	45.17221835206	19176
3	63655	45.17221835206	19317
3	63669	45.172325864115	19458
3	65201	46.27221835206	19599
3	65203	46.27221835206	19740
3	65217	46.272325864115	19881
3	66752	47.37221835206	20022
3	66754	47.37221835206	20163
3	66768	47.372325864115	20304
3	68305	48.47221835206	20445
3	68307	48.47221835206	20586
3	68321	48.472325864115	20727
3	69862	49.57221835206	20868
3	69864	49.57221835206	21009
3	69878	49.572325864115	21150
3	70674	50.12221835206	21291
3	70685	50.122325864115	21432
3	71446	50.67221835206	21573
3	72232	51.22221835206	21714
3	72234	51.22221835206	21855
3	72248	51.222325864115	21996
3	73783	52.32221835206	22137
3	73785	52.32221835206	22278
3	73799	52.322325864115	22419
3	75336	53.42221835206	22560
3	75338	53.42221835206	22701
3	75352	53.422325864115	22842
3	76893	54.52221835206	22983
3	76895	54.52221835206	23124
3	76909	54.522325864115	23265
3	78445	55.62221835206	23406
3	78447	55.62221835206	23547
3	78461	55.622325864115	23688
3	79251	56.17221835206	23829
3	79253	56.17221835206	23970
3	79267	56.172325864115	24111
3	80802	57.27221835206	24252
3	80804	57.27221835206	24393
3	80818	57.272325864115	24534
3	82355	58.37221835206	24675
3	82357	58.37221835206	24816
3	82371	58.372325864115	24957
3	83911	59.47221835206	25098
3	83913	59.47221835206	25239
3	83927	59.472325864115	25380
3	85464	60.57221835206	25521
3	85466	60.57221835206	25662
3	85480	60.572325864115	25803
3	86276	61.12221835206	25944
3	86287	61.122325864115	26085
3	87048	61.67221835206	26226
3	87837	62.22221835206	26367
3	87839	62.22221835206	26508
3	87853	62.222325864115	26649
3	89390	63.32221835206	26790
3	89392	63.32221835206	26931
3	89406	63.322325864115	27072
3	90946	64.42221835206	27213
3	90948	64.42221835206	27354
3	90962	64.422325864115	27495
3	92499	65.52221835206	27636
3	92501	65.52221835206	27777
3	92515	65.522325864115	27918
3	94051	66.62221835206	28059
3	94053	66.62221835206	28200
3	94067	66.622325864115	28341
3	94860	67.17221835206	28482
3	94862	67.17221835206	28623
3	94876	67.172325864115	28764
3	96413	68.27221835206	28905
3	96415	68.27221835206	29046
3	96429	68.272325864115	29187
3	97969	69.37221835206	29328
3	97971	69.37221835206	29469
3	97985	69.372325864115	29610
3	99522	70.47221835206	29751
3	99524	70.47221835206	29892
3	99538	70.472325864115	30033
3	101074	71.57221835206	30174
3	101076	71.57221835206	30315
3	101090	71.572325864115	30456
3	101889	72.12221835206	30597
3	101900	72.122325864115	30738
3	102662	72.67221835206	30879
3	103452	73.22221835206	31020
3	103454	73.22221835206	31161
3	103468	73.222325864115	31302
3	105008	74.32221835206	31443
3	105010	74.32221835206	31584
3	105024	74.322325864115	31725
3	106561	75.42221835206	31866
3	106563	75.42221835206	32007
3	106577	75.422325864115	32148
3	108113	76.52221835206	32289
3	108115	76.52221835206	32430
3	108129	76.522325864115	32571
3	109669	77.62221835206	32712
3	109671	77.62221835206	32853
3	109685	77.622325864115	32994
3	110479	78.17221835206	33135
3	110481	78.17221835206	33276
3	110495	78.172325864115	33417
3	112035	79.27221835206	33558
3	112037	79.27221835206	33699
3	112051	79.272325864115	33840
3	113588	80.37221835206	33981
3	113590	80.37221835206	34122
3	113604	80.372325864115	34263
3	115133	81.47221835206	34404
3	115144	81.472325864115	34545
3	116672	82.57221835206	34686
3	116680	82.57223748641	34827
3	117475	83.12223748641	34968
3	117483	83.122280751662	35109
3	118245	83.67221835206	35250
3	119033	84.22221835206	35391
3	119044	84.22223748641	35532
3	119052	84.222280751662	35673
3	120586	85.32221835206	35814
3	120597	85.32223748641	35955
3	120605	85.322280751662	36096
3	122138	86.42221835206	36237
3	122149	86.42223748641	36378
3	122157	86.422280751662	36519
3	123694	87.52221835206	36660
3	123705	87.52223748641	36801
3	123713	87.522280751662	36942
3	125254	88.62221835206	37083
3	125265	88.62223748641	37224
3	125273	88.622280751662	37365
3	126067	89.17221835206	37506
3	126078	89.17223748641	37647
3	126086	89.172280751662	37788
3	127621	90.27221835206	37929
3	127632	90.27223748641	38070
3	127640	90.272280751662	38211
3	129173	91.37221835206	38352
3	129184	91.37223748641	38493
3	129192	91.372280751662	38634
3	130728	92.47221835206	38775
3	130739	92.47223748641	38916
3	130747	92.472280751662	39057
3	132289	93.57221835206	39198
3	132300	93.57223748641	39339
3	132308	93.572280751662	39480
3	133114	94.12223748641	39621
3	133122	94.122280751662	39762
3	133885	94.67221835206	39903
3	134672	95.22221835206	40044
3	134683	95.22223748641	40185
3	134691	95.222280751662	40326
3	136224	96.32221835206	40467
3	136235	96.32223748641	40608
3	136243	96.322280751662	40749
3	137779	97.42221835206	40890
3	137790	97.42223748641	41031
3	137798	97.422280751662	41172
3	139340	98.52221835206	41313
3	139351	98.52223748641	41454
3	139359	98.522280751662	41595
3	140901	99.62221835206	41736
3	140912	99.62223748641	41877
3	140920	99.622280751662	42018

