version 2
run A-0-20191104-18:36:20-13881
attr configname A
attr datetime 20191104-18:36:20
attr experiment A
attr inifile GwSimV2.ini
attr iterationvars ""
attr iterationvarsf ""
attr measurement ""
attr network NetworkTormV2
attr processid 13881
attr repetition 0
attr replication #0
attr resultdir results
attr runnumber 0
attr seedset 0
param **.mobility.traceFile "\"AllPaths/mobPaths/A.movements\""
param **.numNodes 11
param **.application.dataGenerationInterval 1s
param **.application.dataSizeInBytes 10
param **.application.ttl 999999s
param **application.nodesThatGen false
param **application.nodesGenMsg "\"\""
param **application.startMultipleMsg false
param **application.numMultipleMsg 100
param **application.hopsListSize 50
param **.application.endGeneratingMsg 99s
param **.routingLayer "\"RoutingLqeGw\""
param **.routing.maximumCacheSize 5000byte
param **.routing.maximumHopCount 25
param **.routing.useTTL false
param **.routing.waitBFsend 0.1
param **.routing.max_age 999999s
param **.routing.gateway_list "\"\""
param **.routing.actual_gateway "\"\""
param **.routing.gwCheckPeriod 5s
param **.neighboring.resetGPeriod 999s
param **.wirelessIfc.wirelessRange 40m
param **.numNodes 2
param **.application.usedRNG 1
param **.application.dataGenerationInterval 1s
param **.application.dataSizeInBytes 10
param **.application.ttl 999999s
param **application.destinationAddr "\"Wf:00:00:00:00:02\""
param **application.destinationBTAddr "\"Bt:00:00:00:00:02\""
param **application.nodesThatGen true
param **application.nodesGenMsg "\"0\""
param **application.startMultipleMsg true
param **application.numMultipleMsg 100
param **application.hopsListSize 50
param **.application.endGeneratingMsg 999999s
param **.routingLayer "\"RoutingLqeGw\""
param **.routing.maximumCacheSize 5000byte
param **.routing.maximumHopCount 25
param **.routing.useTTL false
param **.routing.waitBFsend 0.1
param **.routing.max_age 999999s
param **.routing.gateway_list "\"\""
param **.routing.actual_gateway "\"\""
param **.routing.gwCheckPeriod 5s
param **.neighboring.antiEntropyInterval 500ms
param **.neighboring.maximumRandomBackoffDuration 1s
param **.neighboring.delayPerDataMsg 0.1
param **neighboring.usedRNG 2
param **.neighboring.GWAddr "\"Wf:00:00:00:00:02\""
param **.neighboring.sendWifiFirst true
param **.neighboring.maxLengthGraph 20
param **.neighboring.max_age 999999s
param **.neighboring.max_absent_time 1s
param **.wirelessIfc.wirelessRange 40m
param **.wirelessIfc.neighbourScanInterval 50ms
param **.wirelessIfc.bandwidthBitRate 100000bps
param **.wirelessIfc.wirelessHeaderSize 32byte
param **.wirelessIfc.minSSI -90
param **.wirelessIfc.limitQueueTime 400ms
param **.wirelessIfc.my_limit_rate 0bps
param **.bluetoothIfc.wirelessRange 40m
param **.bluetoothIfc.neighbourScanInterval 100ms
param **.bluetoothIfc.bandwidthBitRate 100000bps
param **.bluetoothIfc.wirelessHeaderSize 16byte
param **.bluetoothIfc.minSSI -90
param **.mobilityType "\"BonnMotionMobility\""
param **.mobility.traceFile "\"paths/Moves2.movements\""
param **.mobility.is3D false
param **.mobility.nodeId -1

vector 0 NetworkTormV2 neighbourhoodSize:vector ETV
attr source neighbourhoodSize
vector 1 NetworkTormV2 deliveryRatio:vector ETV
attr source sum(totalDataBytesReceived)/sum(totalDataBytesReceivableByAllNodes)
vector 2 NetworkTormV2 dataBytesReceivedSum:vector ETV
attr source sum(dataBytesReceived)
vector 3 NetworkTormV2 totalBytesReceivedSum:vector ETV
attr source sum(totalBytesReceived)
0	34	0.05	3
0	35	0.05	5
0	36	0.05	3
0	37	0.05	5
0	38	0.05	8
0	39	0.05	5
0	40	0.05	3
0	41	0.05	5
0	42	0.05	3
0	43	0.05	1
0	44	0.05	1
0	134	0.1	3
0	136	0.1	5
0	138	0.1	3
0	140	0.1	5
0	142	0.1	8
0	144	0.1	5
0	146	0.1	3
0	148	0.1	5
0	150	0.1	3
0	152	0.1	1
0	154	0.1	1
0	155	0.1	3
0	156	0.1	5
0	157	0.1	3
0	158	0.1	5
0	159	0.1	8
0	160	0.1	5
0	161	0.1	3
0	162	0.1	5
0	163	0.1	3
0	164	0.1	1
0	165	0.1	1
0	287	0.15	3
0	288	0.15	5
0	289	0.15	3
0	290	0.15	5
0	291	0.15	8
0	292	0.15	5
0	293	0.15	3
0	294	0.15	5
0	295	0.15	3
0	296	0.15	1
0	297	0.15	1
0	386	0.2	3
0	387	0.2	5
0	388	0.2	3
0	389	0.2	5
0	390	0.2	8
0	391	0.2	5
0	392	0.2	3
0	393	0.2	5
0	394	0.2	3
0	395	0.2	1
0	396	0.2	1
0	397	0.2	3
0	398	0.2	5
0	399	0.2	3
0	400	0.2	5
0	401	0.2	8
0	402	0.2	5
0	403	0.2	3
0	404	0.2	5
0	405	0.2	3
0	406	0.2	1
0	407	0.2	1
0	518	0.25	3
0	519	0.25	5
0	520	0.25	3
0	521	0.25	5
0	522	0.25	8
0	523	0.25	5
0	524	0.25	3
0	525	0.25	5
0	526	0.25	3
0	527	0.25	1
0	528	0.25	1
0	617	0.3	3
0	618	0.3	5
0	619	0.3	3
0	620	0.3	5
0	621	0.3	8
0	622	0.3	5
0	623	0.3	3
0	624	0.3	5
0	625	0.3	3
0	626	0.3	1
0	627	0.3	1
0	628	0.3	3
0	629	0.3	5
0	630	0.3	3
0	631	0.3	5
0	632	0.3	8
0	633	0.3	5
0	634	0.3	3
0	635	0.3	5
0	636	0.3	3
0	637	0.3	1
0	638	0.3	1
0	749	0.35	3
0	750	0.35	5
0	751	0.35	3
0	752	0.35	5
0	753	0.35	8
0	754	0.35	5
0	755	0.35	3
0	756	0.35	5
0	757	0.35	3
0	758	0.35	1
0	759	0.35	1
0	848	0.4	3
0	849	0.4	5
0	850	0.4	3
0	851	0.4	5
0	852	0.4	8
0	853	0.4	5
0	854	0.4	3
0	855	0.4	5
0	856	0.4	3
0	857	0.4	1
0	858	0.4	1
0	859	0.4	3
0	860	0.4	5
0	861	0.4	3
0	862	0.4	5
0	863	0.4	8
0	864	0.4	5
0	865	0.4	3
0	866	0.4	5
0	867	0.4	3
0	868	0.4	1
0	869	0.4	1
0	980	0.45	3
0	981	0.45	5
0	982	0.45	3
0	983	0.45	5
0	984	0.45	8
0	985	0.45	5
0	986	0.45	3
0	987	0.45	5
0	988	0.45	3
0	989	0.45	1
0	990	0.45	1
0	1079	0.5	3
0	1080	0.5	5
0	1081	0.5	3
0	1082	0.5	5
0	1083	0.5	8
0	1084	0.5	5
0	1085	0.5	3
0	1086	0.5	5
0	1087	0.5	3
0	1088	0.5	1
0	1089	0.5	1
0	1090	0.5	3
0	1091	0.5	5
0	1092	0.5	3
0	1093	0.5	5
0	1094	0.5	8
0	1095	0.5	5
0	1096	0.5	3
0	1097	0.5	5
0	1098	0.5	3
0	1099	0.5	1
0	1100	0.5	1
0	1211	0.55	3
0	1212	0.55	5
0	1213	0.55	3
0	1214	0.55	5
0	1215	0.55	8
0	1216	0.55	5
0	1217	0.55	3
0	1218	0.55	5
0	1219	0.55	3
0	1220	0.55	1
0	1221	0.55	1
0	1310	0.6	3
0	1311	0.6	5
0	1312	0.6	3
0	1313	0.6	5
0	1314	0.6	8
0	1315	0.6	5
0	1316	0.6	3
0	1317	0.6	5
0	1318	0.6	3
0	1319	0.6	1
0	1320	0.6	1
0	1321	0.6	3
0	1322	0.6	5
0	1323	0.6	3
0	1324	0.6	5
0	1325	0.6	8
0	1326	0.6	5
0	1327	0.6	3
0	1328	0.6	5
0	1329	0.6	3
0	1330	0.6	1
0	1331	0.6	1
0	1442	0.65	3
0	1443	0.65	5
0	1444	0.65	3
0	1445	0.65	5
0	1446	0.65	8
0	1447	0.65	5
0	1448	0.65	3
0	1449	0.65	5
0	1450	0.65	3
0	1451	0.65	1
0	1452	0.65	1
0	1541	0.7	3
0	1542	0.7	5
0	1543	0.7	3
0	1544	0.7	5
0	1545	0.7	8
0	1546	0.7	5
0	1547	0.7	3
0	1548	0.7	5
0	1549	0.7	3
0	1550	0.7	1
0	1551	0.7	1
0	1552	0.7	3
0	1553	0.7	5
0	1554	0.7	3
0	1555	0.7	5
0	1556	0.7	8
0	1557	0.7	5
0	1558	0.7	3
0	1559	0.7	5
0	1560	0.7	3
0	1561	0.7	1
0	1562	0.7	1
0	1673	0.75	3
0	1674	0.75	5
0	1675	0.75	3
0	1676	0.75	5
0	1677	0.75	8
0	1678	0.75	5
0	1679	0.75	3
0	1680	0.75	5
0	1681	0.75	3
0	1682	0.75	1
0	1683	0.75	1
0	1772	0.8	3
0	1773	0.8	5
0	1774	0.8	3
0	1775	0.8	5
0	1776	0.8	8
0	1777	0.8	5
0	1778	0.8	3
0	1779	0.8	5
0	1780	0.8	3
0	1781	0.8	1
0	1782	0.8	1
0	1783	0.8	3
0	1784	0.8	5
0	1785	0.8	3
0	1786	0.8	5
0	1787	0.8	8
0	1788	0.8	5
0	1789	0.8	3
0	1790	0.8	5
0	1791	0.8	3
0	1792	0.8	1
0	1793	0.8	1
0	1904	0.85	3
0	1905	0.85	5
0	1906	0.85	3
0	1907	0.85	5
0	1908	0.85	8
0	1909	0.85	5
0	1910	0.85	3
0	1911	0.85	5
0	1912	0.85	3
0	1913	0.85	1
0	1914	0.85	1
0	2003	0.9	3
0	2004	0.9	5
0	2005	0.9	3
0	2006	0.9	5
0	2007	0.9	8
0	2008	0.9	5
0	2009	0.9	3
0	2010	0.9	5
0	2011	0.9	3
0	2012	0.9	1
0	2013	0.9	1
0	2014	0.9	3
0	2015	0.9	5
0	2016	0.9	3
0	2017	0.9	5
0	2018	0.9	8
0	2019	0.9	5
0	2020	0.9	3
0	2021	0.9	5
0	2022	0.9	3
0	2023	0.9	1
0	2024	0.9	1
0	2135	0.95	3
0	2136	0.95	5
0	2137	0.95	3
0	2138	0.95	5
0	2139	0.95	8
0	2140	0.95	5
0	2141	0.95	3
0	2142	0.95	5
0	2143	0.95	3
0	2144	0.95	1
0	2145	0.95	1
0	2234	1	3
0	2235	1	5
0	2236	1	3
0	2237	1	5
0	2238	1	8
0	2239	1	5
0	2240	1	3
0	2241	1	5
0	2242	1	3
0	2243	1	1
0	2244	1	1
0	2245	1	3
0	2246	1	5
0	2247	1	3
0	2248	1	5
0	2249	1	8
0	2250	1	5
0	2251	1	3
0	2252	1	5
0	2253	1	3
0	2254	1	1
0	2255	1	1
0	2366	1.05	3
0	2367	1.05	5
0	2368	1.05	3
0	2369	1.05	5
0	2370	1.05	8
0	2371	1.05	5
0	2372	1.05	3
0	2373	1.05	5
0	2374	1.05	3
0	2375	1.05	1
0	2376	1.05	1
0	2476	1.1	3
0	2477	1.1	5
0	2478	1.1	3
0	2479	1.1	5
0	2480	1.1	8
0	2481	1.1	5
0	2482	1.1	3
0	2483	1.1	5
0	2484	1.1	3
0	2485	1.1	1
0	2486	1.1	1
0	2487	1.1	3
0	2488	1.1	5
0	2489	1.1	3
0	2490	1.1	5
0	2491	1.1	8
0	2492	1.1	5
0	2493	1.1	3
0	2494	1.1	5
0	2495	1.1	3
0	2496	1.1	1
0	2497	1.1	1
0	3069	1.15	3
0	3070	1.15	5
0	3071	1.15	3
0	3072	1.15	5
0	3073	1.15	8
0	3074	1.15	5
0	3075	1.15	3
0	3076	1.15	5
0	3077	1.15	3
0	3078	1.15	1
0	3079	1.15	1
0	3486	1.2	3
0	3487	1.2	5
0	3488	1.2	3
0	3489	1.2	5
0	3490	1.2	8
0	3491	1.2	5
0	3492	1.2	3
0	3493	1.2	5
0	3494	1.2	3
0	3495	1.2	1
0	3496	1.2	1
0	3497	1.2	3
0	3498	1.2	5
0	3499	1.2	3
0	3500	1.2	5
0	3501	1.2	8
0	3502	1.2	5
0	3503	1.2	3
0	3504	1.2	5
0	3505	1.2	3
0	3506	1.2	1
0	3507	1.2	1
0	3702	1.25	3
0	3703	1.25	5
0	3704	1.25	3
0	3705	1.25	5
0	3706	1.25	8
0	3707	1.25	5
0	3708	1.25	3
0	3709	1.25	5
0	3710	1.25	3
0	3711	1.25	1
0	3712	1.25	1
0	3819	1.3	3
0	3820	1.3	5
0	3821	1.3	3
0	3822	1.3	5
0	3823	1.3	8
0	3824	1.3	5
0	3825	1.3	3
0	3826	1.3	5
0	3827	1.3	3
0	3828	1.3	1
0	3829	1.3	1
0	3830	1.3	3
0	3831	1.3	5
0	3832	1.3	3
0	3833	1.3	5
0	3834	1.3	8
0	3835	1.3	5
0	3836	1.3	3
0	3837	1.3	5
0	3838	1.3	3
0	3839	1.3	1
0	3840	1.3	1
0	3951	1.35	3
0	3952	1.35	5
0	3953	1.35	3
0	3954	1.35	5
0	3955	1.35	8
0	3956	1.35	5
0	3957	1.35	3
0	3958	1.35	5
0	3959	1.35	3
0	3960	1.35	1
0	3961	1.35	1
0	4050	1.4	3
0	4051	1.4	5
0	4052	1.4	3
0	4053	1.4	5
0	4054	1.4	8
0	4055	1.4	5
0	4056	1.4	3
0	4057	1.4	5
0	4058	1.4	3
0	4059	1.4	1
0	4060	1.4	1
0	4061	1.4	3
0	4062	1.4	5
0	4063	1.4	3
0	4064	1.4	5
0	4065	1.4	8
0	4066	1.4	5
0	4067	1.4	3
0	4068	1.4	5
0	4069	1.4	3
0	4070	1.4	1
0	4071	1.4	1
0	4182	1.45	3
0	4183	1.45	5
0	4184	1.45	3
0	4185	1.45	5
0	4186	1.45	8
0	4187	1.45	5
0	4188	1.45	3
0	4189	1.45	5
0	4190	1.45	3
0	4191	1.45	1
0	4192	1.45	1
0	4281	1.5	3
0	4282	1.5	5
0	4283	1.5	3
0	4284	1.5	5
0	4285	1.5	8
0	4286	1.5	5
0	4287	1.5	3
0	4288	1.5	5
0	4289	1.5	3
0	4290	1.5	1
0	4291	1.5	1
0	4292	1.5	3
0	4293	1.5	5
0	4294	1.5	3
0	4295	1.5	5
0	4296	1.5	8
0	4297	1.5	5
0	4298	1.5	3
0	4299	1.5	5
0	4300	1.5	3
0	4301	1.5	1
0	4302	1.5	1
0	4413	1.55	3
0	4414	1.55	5
0	4415	1.55	3
0	4416	1.55	5
0	4417	1.55	8
0	4418	1.55	5
0	4419	1.55	3
0	4420	1.55	5
0	4421	1.55	3
0	4422	1.55	1
0	4423	1.55	1
0	4512	1.6	3
0	4513	1.6	5
0	4514	1.6	3
0	4515	1.6	5
0	4516	1.6	8
0	4517	1.6	5
0	4518	1.6	3
0	4519	1.6	5
0	4520	1.6	3
0	4521	1.6	1
0	4522	1.6	1
0	4523	1.6	3
0	4524	1.6	5
0	4525	1.6	3
0	4526	1.6	5
0	4527	1.6	8
0	4528	1.6	5
0	4529	1.6	3
0	4530	1.6	5
0	4531	1.6	3
0	4532	1.6	1
0	4533	1.6	1
0	4644	1.65	3
0	4645	1.65	5
0	4646	1.65	3
0	4647	1.65	5
0	4648	1.65	8
0	4649	1.65	5
0	4650	1.65	3
0	4651	1.65	5
0	4652	1.65	3
0	4653	1.65	1
0	4654	1.65	1
0	5161	1.7	3
0	5162	1.7	5
0	5163	1.7	3
0	5164	1.7	5
0	5165	1.7	8
0	5166	1.7	5
0	5167	1.7	3
0	5168	1.7	5
0	5169	1.7	3
0	5170	1.7	1
0	5171	1.7	1
0	5172	1.7	3
0	5173	1.7	5
0	5174	1.7	3
0	5175	1.7	5
0	5176	1.7	8
0	5177	1.7	5
0	5178	1.7	3
0	5179	1.7	5
0	5180	1.7	3
0	5181	1.7	1
0	5182	1.7	1
0	5551	1.75	3
0	5552	1.75	5
0	5553	1.75	3
0	5554	1.75	5
0	5555	1.75	8
0	5556	1.75	5
0	5557	1.75	3
0	5558	1.75	5
0	5559	1.75	3
0	5560	1.75	1
0	5561	1.75	1
0	5746	1.8	3
0	5747	1.8	5
0	5748	1.8	3
0	5749	1.8	5
0	5750	1.8	8
0	5751	1.8	5
0	5752	1.8	3
0	5753	1.8	5
0	5754	1.8	3
0	5755	1.8	1
0	5756	1.8	1
0	5757	1.8	3
0	5758	1.8	5
0	5759	1.8	3
0	5760	1.8	5
0	5761	1.8	8
0	5762	1.8	5
0	5763	1.8	3
0	5764	1.8	5
0	5765	1.8	3
0	5766	1.8	1
0	5767	1.8	1
0	5878	1.85	3
0	5879	1.85	5
0	5880	1.85	3
0	5881	1.85	5
0	5882	1.85	8
0	5883	1.85	5
0	5884	1.85	3
0	5885	1.85	5
0	5886	1.85	3
0	5887	1.85	1
0	5888	1.85	1
0	5982	1.9	3
0	5983	1.9	5
0	5984	1.9	3
0	5985	1.9	5
0	5986	1.9	8
0	5987	1.9	5
0	5988	1.9	3
0	5989	1.9	5
0	5990	1.9	3
0	5991	1.9	1
0	5992	1.9	1
0	5993	1.9	3
0	5994	1.9	5
0	5995	1.9	3
0	5996	1.9	5
0	5997	1.9	8
0	5998	1.9	5
0	5999	1.9	3
0	6000	1.9	5
0	6001	1.9	3
0	6002	1.9	1
0	6003	1.9	1
0	6114	1.95	3
0	6115	1.95	5
0	6116	1.95	3
0	6117	1.95	5
0	6118	1.95	8
0	6119	1.95	5
0	6120	1.95	3
0	6121	1.95	5
0	6122	1.95	3
0	6123	1.95	1
0	6124	1.95	1
0	6213	2	3
0	6214	2	5
0	6215	2	3
0	6216	2	5
0	6217	2	8
0	6218	2	5
0	6219	2	3
0	6220	2	5
0	6221	2	3
0	6222	2	1
0	6223	2	1
0	6224	2	3
0	6225	2	5
0	6226	2	3
0	6227	2	5
0	6228	2	8
0	6229	2	5
0	6230	2	3
0	6231	2	5
0	6232	2	3
0	6233	2	1
0	6234	2	1
0	6345	2.05	3
0	6346	2.05	5
0	6347	2.05	3
0	6348	2.05	5
0	6349	2.05	8
0	6350	2.05	5
0	6351	2.05	3
0	6352	2.05	5
0	6353	2.05	3
0	6354	2.05	1
0	6355	2.05	1
0	6455	2.1	3
0	6456	2.1	5
0	6457	2.1	3
0	6458	2.1	5
0	6459	2.1	8
0	6460	2.1	5
0	6461	2.1	3
0	6462	2.1	5
0	6463	2.1	3
0	6464	2.1	1
0	6465	2.1	1
0	6466	2.1	3
0	6467	2.1	5
0	6468	2.1	3
0	6469	2.1	5
0	6470	2.1	8
0	6471	2.1	5
0	6472	2.1	3
0	6473	2.1	5
0	6474	2.1	3
0	6475	2.1	1
0	6476	2.1	1
0	6598	2.15	3
0	6599	2.15	5
0	6600	2.15	3
0	6601	2.15	5
0	6602	2.15	8
0	6603	2.15	5
0	6604	2.15	3
0	6605	2.15	5
0	6606	2.15	3
0	6607	2.15	1
0	6608	2.15	1
0	6697	2.2	3
0	6698	2.2	5
0	6699	2.2	3
0	6700	2.2	5
0	6701	2.2	8
0	6702	2.2	5
0	6703	2.2	3
0	6704	2.2	5
0	6705	2.2	3
0	6706	2.2	1
0	6707	2.2	1
0	6708	2.2	3
0	6709	2.2	5
0	6710	2.2	3
0	6711	2.2	5
0	6712	2.2	8
0	6713	2.2	5
0	6714	2.2	3
0	6715	2.2	5
0	6716	2.2	3
0	6717	2.2	1
0	6718	2.2	1
0	7264	2.25	3
0	7265	2.25	5
0	7266	2.25	3
0	7267	2.25	5
0	7268	2.25	8
0	7269	2.25	5
0	7270	2.25	3
0	7271	2.25	5
0	7272	2.25	3
0	7273	2.25	1
0	7274	2.25	1
0	7594	2.3	3
0	7595	2.3	5
0	7596	2.3	3
0	7597	2.3	5
0	7598	2.3	8
0	7599	2.3	5
0	7600	2.3	3
0	7601	2.3	5
0	7602	2.3	3
0	7603	2.3	1
0	7604	2.3	1
0	7605	2.3	3
0	7606	2.3	5
0	7607	2.3	3
0	7608	2.3	5
0	7609	2.3	8
0	7610	2.3	5
0	7611	2.3	3
0	7612	2.3	5
0	7613	2.3	3
0	7614	2.3	1
0	7615	2.3	1
0	7747	2.35	3
0	7748	2.35	5
0	7749	2.35	3
0	7750	2.35	5
0	7751	2.35	8
0	7752	2.35	5
0	7753	2.35	3
0	7754	2.35	5
0	7755	2.35	3
0	7756	2.35	1
0	7757	2.35	1
0	7903	2.4	3
0	7904	2.4	5
0	7905	2.4	3
0	7906	2.4	5
0	7907	2.4	8
0	7908	2.4	5
0	7909	2.4	3
0	7910	2.4	5
0	7911	2.4	3
0	7912	2.4	1
0	7913	2.4	1
0	7914	2.4	3
0	7915	2.4	5
0	7916	2.4	3
0	7917	2.4	5
0	7918	2.4	8
0	7919	2.4	5
0	7920	2.4	3
0	7921	2.4	5
0	7922	2.4	3
0	7923	2.4	1
0	7924	2.4	1
0	8035	2.45	3
0	8036	2.45	5
0	8037	2.45	3
0	8038	2.45	5
0	8039	2.45	8
0	8040	2.45	5
0	8041	2.45	3
0	8042	2.45	5
0	8043	2.45	3
0	8044	2.45	1
0	8045	2.45	1
0	8134	2.5	3
0	8135	2.5	5
0	8136	2.5	3
0	8137	2.5	5
0	8138	2.5	8
0	8139	2.5	5
0	8140	2.5	3
0	8141	2.5	5
0	8142	2.5	3
0	8143	2.5	1
0	8144	2.5	1
0	8145	2.5	3
0	8146	2.5	5
0	8147	2.5	3
0	8148	2.5	5
0	8149	2.5	8
0	8150	2.5	5
0	8151	2.5	3
0	8152	2.5	5
0	8153	2.5	3
0	8154	2.5	1
0	8155	2.5	1
0	8266	2.55	3
0	8267	2.55	5
0	8268	2.55	3
0	8269	2.55	5
0	8270	2.55	8
0	8271	2.55	5
0	8272	2.55	3
0	8273	2.55	5
0	8274	2.55	3
0	8275	2.55	1
0	8276	2.55	1
0	8365	2.6	3
0	8366	2.6	5
0	8367	2.6	3
0	8368	2.6	5
0	8369	2.6	8
0	8370	2.6	5
0	8371	2.6	3
0	8372	2.6	5
0	8373	2.6	3
0	8374	2.6	1
0	8375	2.6	1
0	8376	2.6	3
0	8377	2.6	5
0	8378	2.6	3
0	8379	2.6	5
0	8380	2.6	8
0	8381	2.6	5
0	8382	2.6	3
0	8383	2.6	5
0	8384	2.6	3
0	8385	2.6	1
0	8386	2.6	1
0	8497	2.65	3
0	8498	2.65	5
0	8499	2.65	3
0	8500	2.65	5
0	8501	2.65	8
0	8502	2.65	5
0	8503	2.65	3
0	8504	2.65	5
0	8505	2.65	3
0	8506	2.65	1
0	8507	2.65	1
0	8596	2.7	3
0	8597	2.7	5
0	8598	2.7	3
0	8599	2.7	5
0	8600	2.7	8
0	8601	2.7	5
0	8602	2.7	3
0	8603	2.7	5
0	8604	2.7	3
0	8605	2.7	1
0	8606	2.7	1
0	8607	2.7	3
0	8608	2.7	5
0	8609	2.7	3
0	8610	2.7	5
0	8611	2.7	8
0	8612	2.7	5
0	8613	2.7	3
0	8614	2.7	5
0	8615	2.7	3
0	8616	2.7	1
0	8617	2.7	1
0	8791	2.75	3
0	8792	2.75	5
0	8793	2.75	3
0	8794	2.75	5
0	8795	2.75	8
0	8796	2.75	5
0	8797	2.75	3
0	8798	2.75	5
0	8799	2.75	3
0	8800	2.75	1
0	8801	2.75	1
0	9307	2.8	3
0	9308	2.8	5
0	9309	2.8	3
0	9310	2.8	5
0	9311	2.8	8
0	9312	2.8	5
0	9313	2.8	3
0	9314	2.8	5
0	9315	2.8	3
0	9316	2.8	1
0	9317	2.8	1
0	9318	2.8	3
0	9319	2.8	5
0	9320	2.8	3
0	9321	2.8	5
0	9322	2.8	8
0	9323	2.8	5
0	9324	2.8	3
0	9325	2.8	5
0	9326	2.8	3
0	9327	2.8	1
0	9328	2.8	1
0	9664	2.85	3
0	9665	2.85	5
0	9666	2.85	3
0	9667	2.85	5
0	9668	2.85	8
0	9669	2.85	5
0	9670	2.85	3
0	9671	2.85	5
0	9672	2.85	3
0	9673	2.85	1
0	9674	2.85	1
0	9768	2.9	3
0	9769	2.9	5
0	9770	2.9	3
0	9771	2.9	5
0	9772	2.9	8
0	9773	2.9	5
0	9774	2.9	3
0	9775	2.9	5
0	9776	2.9	3
0	9777	2.9	1
0	9778	2.9	1
0	9779	2.9	3
0	9780	2.9	5
0	9781	2.9	3
0	9782	2.9	5
0	9783	2.9	8
0	9784	2.9	5
0	9785	2.9	3
0	9786	2.9	5
0	9787	2.9	3
0	9788	2.9	1
0	9789	2.9	1
0	9938	2.95	3
0	9939	2.95	5
0	9940	2.95	3
0	9941	2.95	5
0	9942	2.95	8
0	9943	2.95	5
0	9944	2.95	3
0	9945	2.95	5
0	9946	2.95	3
0	9947	2.95	1
0	9948	2.95	1
0	10037	3	3
0	10038	3	5
0	10039	3	3
0	10040	3	5
0	10041	3	8
0	10042	3	5
0	10043	3	3
0	10044	3	5
0	10045	3	3
0	10046	3	1
0	10047	3	1
0	10048	3	3
0	10049	3	5
0	10050	3	3
0	10051	3	5
0	10052	3	8
0	10053	3	5
0	10054	3	3
0	10055	3	5
0	10056	3	3
0	10057	3	1
0	10058	3	1
0	10169	3.05	3
0	10170	3.05	5
0	10171	3.05	3
0	10172	3.05	5
0	10173	3.05	8
0	10174	3.05	5
0	10175	3.05	3
0	10176	3.05	5
0	10177	3.05	3
0	10178	3.05	1
0	10179	3.05	1
0	10279	3.1	3
0	10280	3.1	5
0	10281	3.1	3
0	10282	3.1	5
0	10283	3.1	8
0	10284	3.1	5
0	10285	3.1	3
0	10286	3.1	5
0	10287	3.1	3
0	10288	3.1	1
0	10289	3.1	1
0	10290	3.1	3
0	10291	3.1	5
0	10292	3.1	3
0	10293	3.1	5
0	10294	3.1	8
0	10295	3.1	5
0	10296	3.1	3
0	10297	3.1	5
0	10298	3.1	3
0	10299	3.1	1
0	10300	3.1	1
0	10422	3.15	3
0	10423	3.15	5
0	10424	3.15	3
0	10425	3.15	5
0	10426	3.15	8
0	10427	3.15	5
0	10428	3.15	3
0	10429	3.15	5
0	10430	3.15	3
0	10431	3.15	1
0	10432	3.15	1
0	10521	3.2	3
0	10522	3.2	5
0	10523	3.2	3
0	10524	3.2	5
0	10525	3.2	8
0	10526	3.2	5
0	10527	3.2	3
0	10528	3.2	5
0	10529	3.2	3
0	10530	3.2	1
0	10531	3.2	1
0	10532	3.2	3
0	10533	3.2	5
0	10534	3.2	3
0	10535	3.2	5
0	10536	3.2	8
0	10537	3.2	5
0	10538	3.2	3
0	10539	3.2	5
0	10540	3.2	3
0	10541	3.2	1
0	10542	3.2	1
0	10653	3.25	3
0	10654	3.25	5
0	10655	3.25	3
0	10656	3.25	5
0	10657	3.25	8
0	10658	3.25	5
0	10659	3.25	3
0	10660	3.25	5
0	10661	3.25	3
0	10662	3.25	1
0	10663	3.25	1
0	10797	3.3	3
0	10798	3.3	5
0	10799	3.3	3
0	10800	3.3	5
0	10801	3.3	8
0	10802	3.3	5
0	10803	3.3	3
0	10804	3.3	5
0	10805	3.3	3
0	10806	3.3	1
0	10807	3.3	1
0	10808	3.3	3
0	10809	3.3	5
0	10810	3.3	3
0	10811	3.3	5
0	10812	3.3	8
0	10813	3.3	5
0	10814	3.3	3
0	10815	3.3	5
0	10816	3.3	3
0	10817	3.3	1
0	10818	3.3	1
0	11384	3.35	3
0	11385	3.35	5
0	11386	3.35	3
0	11387	3.35	5
0	11388	3.35	8
0	11389	3.35	5
0	11390	3.35	3
0	11391	3.35	5
0	11392	3.35	3
0	11393	3.35	1
0	11394	3.35	1
0	11591	3.4	3
0	11592	3.4	5
0	11593	3.4	3
0	11594	3.4	5
0	11595	3.4	8
0	11596	3.4	5
0	11597	3.4	3
0	11598	3.4	5
0	11599	3.4	3
0	11600	3.4	1
0	11601	3.4	1
0	11602	3.4	3
0	11603	3.4	5
0	11604	3.4	3
0	11605	3.4	5
0	11606	3.4	8
0	11607	3.4	5
0	11608	3.4	3
0	11609	3.4	5
0	11610	3.4	3
0	11611	3.4	1
0	11612	3.4	1
0	11746	3.45	3
0	11747	3.45	5
0	11748	3.45	3
0	11749	3.45	5
0	11750	3.45	8
0	11751	3.45	5
0	11752	3.45	3
0	11753	3.45	5
0	11754	3.45	3
0	11755	3.45	1
0	11756	3.45	1
0	11914	3.5	3
0	11915	3.5	5
0	11916	3.5	3
0	11917	3.5	5
0	11918	3.5	8
0	11919	3.5	5
0	11920	3.5	3
0	11921	3.5	5
0	11922	3.5	3
0	11923	3.5	1
0	11924	3.5	1
0	11925	3.5	3
0	11926	3.5	5
0	11927	3.5	3
0	11928	3.5	5
0	11929	3.5	8
0	11930	3.5	5
0	11931	3.5	3
0	11932	3.5	5
0	11933	3.5	3
0	11934	3.5	1
0	11935	3.5	1
0	12046	3.55	3
0	12047	3.55	5
0	12048	3.55	3
0	12049	3.55	5
0	12050	3.55	8
0	12051	3.55	5
0	12052	3.55	3
0	12053	3.55	5
0	12054	3.55	3
0	12055	3.55	1
0	12056	3.55	1
0	12145	3.6	3
0	12146	3.6	5
0	12147	3.6	3
0	12148	3.6	5
0	12149	3.6	8
0	12150	3.6	5
0	12151	3.6	3
0	12152	3.6	5
0	12153	3.6	3
0	12154	3.6	1
0	12155	3.6	1
0	12156	3.6	3
0	12157	3.6	5
0	12158	3.6	3
0	12159	3.6	5
0	12160	3.6	8
0	12161	3.6	5
0	12162	3.6	3
0	12163	3.6	5
0	12164	3.6	3
0	12165	3.6	1
0	12166	3.6	1
0	12277	3.65	3
0	12278	3.65	5
0	12279	3.65	3
0	12280	3.65	5
0	12281	3.65	8
0	12282	3.65	5
0	12283	3.65	3
0	12284	3.65	5
0	12285	3.65	3
0	12286	3.65	1
0	12287	3.65	1
0	12376	3.7	3
0	12377	3.7	5
0	12378	3.7	3
0	12379	3.7	5
0	12380	3.7	8
0	12381	3.7	5
0	12382	3.7	3
0	12383	3.7	5
0	12384	3.7	3
0	12385	3.7	1
0	12386	3.7	1
0	12387	3.7	3
0	12388	3.7	5
0	12389	3.7	3
0	12390	3.7	5
0	12391	3.7	8
0	12392	3.7	5
0	12393	3.7	3
0	12394	3.7	5
0	12395	3.7	3
0	12396	3.7	1
0	12397	3.7	1
0	12508	3.75	3
0	12509	3.75	5
0	12510	3.75	3
0	12511	3.75	5
0	12512	3.75	8
0	12513	3.75	5
0	12514	3.75	3
0	12515	3.75	5
0	12516	3.75	3
0	12517	3.75	1
0	12518	3.75	1
0	12607	3.8	3
0	12608	3.8	5
0	12609	3.8	3
0	12610	3.8	5
0	12611	3.8	8
0	12612	3.8	5
0	12613	3.8	3
0	12614	3.8	5
0	12615	3.8	3
0	12616	3.8	1
0	12617	3.8	1
0	12618	3.8	3
0	12619	3.8	5
0	12620	3.8	3
0	12621	3.8	5
0	12622	3.8	8
0	12623	3.8	5
0	12624	3.8	3
0	12625	3.8	5
0	12626	3.8	3
0	12627	3.8	1
0	12628	3.8	1
0	12789	3.85	3
0	12790	3.85	5
0	12791	3.85	3
0	12792	3.85	5
0	12793	3.85	8
0	12794	3.85	5
0	12795	3.85	3
0	12796	3.85	5
0	12797	3.85	3
0	12798	3.85	1
0	12799	3.85	1
0	13340	3.9	3
0	13341	3.9	5
0	13342	3.9	3
0	13343	3.9	5
0	13344	3.9	8
0	13345	3.9	5
0	13346	3.9	3
0	13347	3.9	5
0	13348	3.9	3
0	13349	3.9	1
0	13350	3.9	1
0	13351	3.9	3
0	13352	3.9	5
0	13353	3.9	3
0	13354	3.9	5
0	13355	3.9	8
0	13356	3.9	5
0	13357	3.9	3
0	13358	3.9	5
0	13359	3.9	3
0	13360	3.9	1
0	13361	3.9	1
0	13571	3.95	3
0	13572	3.95	5
0	13573	3.95	3
0	13574	3.95	5
0	13575	3.95	8
0	13576	3.95	5
0	13577	3.95	3
0	13578	3.95	5
0	13579	3.95	3
0	13580	3.95	1
0	13581	3.95	1
0	13693	4	3
0	13694	4	5
0	13695	4	3
0	13696	4	5
0	13697	4	8
0	13698	4	5
0	13699	4	3
0	13700	4	5
0	13701	4	3
0	13702	4	1
0	13703	4	1
0	13704	4	3
0	13705	4	5
0	13706	4	3
0	13707	4	5
0	13708	4	8
0	13709	4	5
0	13710	4	3
0	13711	4	5
0	13712	4	3
0	13713	4	1
0	13714	4	1
0	13876	4.05	3
0	13877	4.05	5
0	13878	4.05	3
0	13879	4.05	5
0	13880	4.05	8
0	13881	4.05	5
0	13882	4.05	3
0	13883	4.05	5
0	13884	4.05	3
0	13885	4.05	1
0	13886	4.05	1
0	13986	4.1	3
0	13987	4.1	5
0	13988	4.1	3
0	13989	4.1	5
0	13990	4.1	8
0	13991	4.1	5
0	13992	4.1	3
0	13993	4.1	5
0	13994	4.1	3
0	13995	4.1	1
0	13996	4.1	1
0	13997	4.1	3
0	13998	4.1	5
0	13999	4.1	3
0	14000	4.1	5
0	14001	4.1	8
0	14002	4.1	5
0	14003	4.1	3
0	14004	4.1	5
0	14005	4.1	3
0	14006	4.1	1
0	14007	4.1	1
0	14129	4.15	3
0	14130	4.15	5
0	14131	4.15	3
0	14132	4.15	5
0	14133	4.15	8
0	14134	4.15	5
0	14135	4.15	3
0	14136	4.15	5
0	14137	4.15	3
0	14138	4.15	1
0	14139	4.15	1
0	14228	4.2	3
0	14229	4.2	5
0	14230	4.2	3
0	14231	4.2	5
0	14232	4.2	8
0	14233	4.2	5
0	14234	4.2	3
0	14235	4.2	5
0	14236	4.2	3
0	14237	4.2	1
0	14238	4.2	1
0	14239	4.2	3
0	14240	4.2	5
0	14241	4.2	3
0	14242	4.2	5
0	14243	4.2	8
0	14244	4.2	5
0	14245	4.2	3
0	14246	4.2	5
0	14247	4.2	3
0	14248	4.2	1
0	14249	4.2	1
0	14360	4.25	3
0	14361	4.25	5
0	14362	4.25	3
0	14363	4.25	5
0	14364	4.25	8
0	14365	4.25	5
0	14366	4.25	3
0	14367	4.25	5
0	14368	4.25	3
0	14369	4.25	1
0	14370	4.25	1
0	14459	4.3	3
0	14460	4.3	5
0	14461	4.3	3
0	14462	4.3	5
0	14463	4.3	8
0	14464	4.3	5
0	14465	4.3	3
0	14466	4.3	5
0	14467	4.3	3
0	14468	4.3	1
0	14469	4.3	1
0	14470	4.3	3
0	14471	4.3	5
0	14472	4.3	3
0	14473	4.3	5
0	14474	4.3	8
0	14475	4.3	5
0	14476	4.3	3
0	14477	4.3	5
0	14478	4.3	3
0	14479	4.3	1
0	14480	4.3	1
0	14614	4.35	3
0	14615	4.35	5
0	14616	4.35	3
0	14617	4.35	5
0	14618	4.35	8
0	14619	4.35	5
0	14620	4.35	3
0	14621	4.35	5
0	14622	4.35	3
0	14623	4.35	1
0	14624	4.35	1
0	14798	4.4	3
0	14799	4.4	5
0	14800	4.4	3
0	14801	4.4	5
0	14802	4.4	8
0	14803	4.4	5
0	14804	4.4	3
0	14805	4.4	5
0	14806	4.4	3
0	14807	4.4	1
0	14808	4.4	1
0	14809	4.4	3
0	14810	4.4	5
0	14811	4.4	3
0	14812	4.4	5
0	14813	4.4	8
0	14814	4.4	5
0	14815	4.4	3
0	14816	4.4	5
0	14817	4.4	3
0	14818	4.4	1
0	14819	4.4	1
0	15336	4.45	3
0	15337	4.45	5
0	15338	4.45	3
0	15339	4.45	5
0	15340	4.45	8
0	15341	4.45	5
0	15342	4.45	3
0	15343	4.45	5
0	15344	4.45	3
0	15345	4.45	1
0	15346	4.45	1
0	15538	4.5	3
0	15539	4.5	5
0	15540	4.5	3
0	15541	4.5	5
0	15542	4.5	8
0	15543	4.5	5
0	15544	4.5	3
0	15545	4.5	5
0	15546	4.5	3
0	15547	4.5	1
0	15548	4.5	1
0	15549	4.5	3
0	15550	4.5	5
0	15551	4.5	3
0	15552	4.5	5
0	15553	4.5	8
0	15554	4.5	5
0	15555	4.5	3
0	15556	4.5	5
0	15557	4.5	3
0	15558	4.5	1
0	15559	4.5	1
0	15762	4.55	3
0	15763	4.55	5
0	15764	4.55	3
0	15765	4.55	5
0	15766	4.55	8
0	15767	4.55	5
0	15768	4.55	3
0	15769	4.55	5
0	15770	4.55	3
0	15771	4.55	1
0	15772	4.55	1
0	15912	4.6	3
0	15913	4.6	5
0	15914	4.6	3
0	15915	4.6	5
0	15916	4.6	8
0	15917	4.6	5
0	15918	4.6	3
0	15919	4.6	5
0	15920	4.6	3
0	15921	4.6	1
0	15922	4.6	1
0	15923	4.6	3
0	15924	4.6	5
0	15925	4.6	3
0	15926	4.6	5
0	15927	4.6	8
0	15928	4.6	5
0	15929	4.6	3
0	15930	4.6	5
0	15931	4.6	3
0	15932	4.6	1
0	15933	4.6	1
0	16044	4.65	3
0	16045	4.65	5
0	16046	4.65	3
0	16047	4.65	5
0	16048	4.65	8
0	16049	4.65	5
0	16050	4.65	3
0	16051	4.65	5
0	16052	4.65	3
0	16053	4.65	1
0	16054	4.65	1
0	16143	4.7	3
0	16144	4.7	5
0	16145	4.7	3
0	16146	4.7	5
0	16147	4.7	8
0	16148	4.7	5
0	16149	4.7	3
0	16150	4.7	5
0	16151	4.7	3
0	16152	4.7	1
0	16153	4.7	1
0	16154	4.7	3
0	16155	4.7	5
0	16156	4.7	3
0	16157	4.7	5
0	16158	4.7	8
0	16159	4.7	5
0	16160	4.7	3
0	16161	4.7	5
0	16162	4.7	3
0	16163	4.7	1
0	16164	4.7	1
0	16275	4.75	3
0	16276	4.75	5
0	16277	4.75	3
0	16278	4.75	5
0	16279	4.75	8
0	16280	4.75	5
0	16281	4.75	3
0	16282	4.75	5
0	16283	4.75	3
0	16284	4.75	1
0	16285	4.75	1
0	16374	4.8	3
0	16375	4.8	5
0	16376	4.8	3
0	16377	4.8	5
0	16378	4.8	8
0	16379	4.8	5
0	16380	4.8	3
0	16381	4.8	5
0	16382	4.8	3
0	16383	4.8	1
0	16384	4.8	1
0	16385	4.8	3
0	16386	4.8	5
0	16387	4.8	3
0	16388	4.8	5
0	16389	4.8	8
0	16390	4.8	5
0	16391	4.8	3
0	16392	4.8	5
0	16393	4.8	3
0	16394	4.8	1
0	16395	4.8	1
0	16506	4.85	3
0	16507	4.85	5
0	16508	4.85	3
0	16509	4.85	5
0	16510	4.85	8
0	16511	4.85	5
0	16512	4.85	3
0	16513	4.85	5
0	16514	4.85	3
0	16515	4.85	1
0	16516	4.85	1
0	16615	4.9	3
0	16616	4.9	5
0	16617	4.9	3
0	16618	4.9	5
0	16619	4.9	8
0	16620	4.9	5
0	16621	4.9	3
0	16622	4.9	5
0	16623	4.9	3
0	16624	4.9	1
0	16625	4.9	1
0	16626	4.9	3
0	16627	4.9	5
0	16628	4.9	3
0	16629	4.9	5
0	16630	4.9	8
0	16631	4.9	5
0	16632	4.9	3
0	16633	4.9	5
0	16634	4.9	3
0	16635	4.9	1
0	16636	4.9	1
0	16833	4.95	3
0	16834	4.95	5
0	16835	4.95	3
0	16836	4.95	5
0	16837	4.95	8
0	16838	4.95	5
0	16839	4.95	3
0	16840	4.95	5
0	16841	4.95	3
0	16842	4.95	1
0	16843	4.95	1
0	17355	5	3
0	17356	5	5
0	17357	5	3
0	17358	5	5
0	17359	5	8
0	17360	5	5
0	17361	5	3
0	17362	5	5
0	17363	5	3
0	17364	5	1
0	17365	5	1
0	17366	5	3
0	17367	5	5
0	17368	5	3
0	17369	5	5
0	17370	5	8
0	17371	5	5
0	17372	5	3
0	17373	5	5
0	17374	5	3
0	17375	5	1
0	17376	5	1
0	17529	5.05	3
0	17530	5.05	5
0	17531	5.05	3
0	17532	5.05	5
0	17533	5.05	8
0	17534	5.05	5
0	17535	5.05	3
0	17536	5.05	5
0	17537	5.05	3
0	17538	5.05	1
0	17539	5.05	1
0	17731	5.1	3
0	17732	5.1	5
0	17733	5.1	3
0	17734	5.1	5
0	17735	5.1	8
0	17736	5.1	5
0	17737	5.1	3
0	17738	5.1	5
0	17739	5.1	3
0	17740	5.1	1
0	17741	5.1	1
0	17742	5.1	3
0	17743	5.1	5
0	17744	5.1	3
0	17745	5.1	5
0	17746	5.1	8
0	17747	5.1	5
0	17748	5.1	3
0	17749	5.1	5
0	17750	5.1	3
0	17751	5.1	1
0	17752	5.1	1
0	17966	5.15	3
0	17967	5.15	5
0	17968	5.15	3
0	17969	5.15	5
0	17970	5.15	8
0	17971	5.15	5
0	17972	5.15	3
0	17973	5.15	5
0	17974	5.15	3
0	17975	5.15	1
0	17976	5.15	1
0	18065	5.2	3
0	18066	5.2	5
0	18067	5.2	3
0	18068	5.2	5
0	18069	5.2	8
0	18070	5.2	5
0	18071	5.2	3
0	18072	5.2	5
0	18073	5.2	3
0	18074	5.2	1
0	18075	5.2	1
0	18076	5.2	3
0	18077	5.2	5
0	18078	5.2	3
0	18079	5.2	5
0	18080	5.2	8
0	18081	5.2	5
0	18082	5.2	3
0	18083	5.2	5
0	18084	5.2	3
0	18085	5.2	1
0	18086	5.2	1
0	18197	5.25	3
0	18198	5.25	5
0	18199	5.25	3
0	18200	5.25	5
0	18201	5.25	8
0	18202	5.25	5
0	18203	5.25	3
0	18204	5.25	5
0	18205	5.25	3
0	18206	5.25	1
0	18207	5.25	1
0	18296	5.3	3
0	18297	5.3	5
0	18298	5.3	3
0	18299	5.3	5
0	18300	5.3	8
0	18301	5.3	5
0	18302	5.3	3
0	18303	5.3	5
0	18304	5.3	3
0	18305	5.3	1
0	18306	5.3	1
0	18307	5.3	3
0	18308	5.3	5
0	18309	5.3	3
0	18310	5.3	5
0	18311	5.3	8
0	18312	5.3	5
0	18313	5.3	3
0	18314	5.3	5
0	18315	5.3	3
0	18316	5.3	1
0	18317	5.3	1
0	18428	5.35	3
0	18429	5.35	5
0	18430	5.35	3
0	18431	5.35	5
0	18432	5.35	8
0	18433	5.35	5
0	18434	5.35	3
0	18435	5.35	5
0	18436	5.35	3
0	18437	5.35	1
0	18438	5.35	1
0	18527	5.4	3
0	18528	5.4	5
0	18529	5.4	3
0	18530	5.4	5
0	18531	5.4	8
0	18532	5.4	5
0	18533	5.4	3
0	18534	5.4	5
0	18535	5.4	3
0	18536	5.4	1
0	18537	5.4	1
0	18538	5.4	3
0	18539	5.4	5
0	18540	5.4	3
0	18541	5.4	5
0	18542	5.4	8
0	18543	5.4	5
0	18544	5.4	3
0	18545	5.4	5
0	18546	5.4	3
0	18547	5.4	1
0	18548	5.4	1
0	18682	5.45	3
0	18683	5.45	5
0	18684	5.45	3
0	18685	5.45	5
0	18686	5.45	8
0	18687	5.45	5
0	18688	5.45	3
0	18689	5.45	5
0	18690	5.45	3
0	18691	5.45	1
0	18692	5.45	1
0	18871	5.5	3
0	18872	5.5	5
0	18873	5.5	3
0	18874	5.5	5
0	18875	5.5	8
0	18876	5.5	5
0	18877	5.5	3
0	18878	5.5	5
0	18879	5.5	3
0	18880	5.5	1
0	18881	5.5	1
0	18882	5.5	3
0	18883	5.5	5
0	18884	5.5	3
0	18885	5.5	5
0	18886	5.5	8
0	18887	5.5	5
0	18888	5.5	3
0	18889	5.5	5
0	18890	5.5	3
0	18891	5.5	1
0	18892	5.5	1
0	19388	5.55	3
0	19389	5.55	5
0	19390	5.55	3
0	19391	5.55	5
0	19392	5.55	8
0	19393	5.55	5
0	19394	5.55	3
0	19395	5.55	5
0	19396	5.55	3
0	19397	5.55	1
0	19398	5.55	1
0	19543	5.6	3
0	19544	5.6	5
0	19545	5.6	3
0	19546	5.6	5
0	19547	5.6	8
0	19548	5.6	5
0	19549	5.6	3
0	19550	5.6	5
0	19551	5.6	3
0	19552	5.6	1
0	19553	5.6	1
0	19554	5.6	3
0	19555	5.6	5
0	19556	5.6	3
0	19557	5.6	5
0	19558	5.6	8
0	19559	5.6	5
0	19560	5.6	3
0	19561	5.6	5
0	19562	5.6	3
0	19563	5.6	1
0	19564	5.6	1
0	19767	5.65	3
0	19768	5.65	5
0	19769	5.65	3
0	19770	5.65	5
0	19771	5.65	8
0	19772	5.65	5
0	19773	5.65	3
0	19774	5.65	5
0	19775	5.65	3
0	19776	5.65	1
0	19777	5.65	1
0	19958	5.7	3
0	19959	5.7	5
0	19960	5.7	3
0	19961	5.7	5
0	19962	5.7	8
0	19963	5.7	5
0	19964	5.7	3
0	19965	5.7	5
0	19966	5.7	3
0	19967	5.7	1
0	19968	5.7	1
0	19969	5.7	3
0	19970	5.7	5
0	19971	5.7	3
0	19972	5.7	5
0	19973	5.7	8
0	19974	5.7	5
0	19975	5.7	3
0	19976	5.7	5
0	19977	5.7	3
0	19978	5.7	1
0	19979	5.7	1
0	20090	5.75	3
0	20091	5.75	5
0	20092	5.75	3
0	20093	5.75	5
0	20094	5.75	8
0	20095	5.75	5
0	20096	5.75	3
0	20097	5.75	5
0	20098	5.75	3
0	20099	5.75	1
0	20100	5.75	1
0	20189	5.8	3
0	20190	5.8	5
0	20191	5.8	3
0	20192	5.8	5
0	20193	5.8	8
0	20194	5.8	5
0	20195	5.8	3
0	20196	5.8	5
0	20197	5.8	3
0	20198	5.8	1
0	20199	5.8	1
0	20200	5.8	3
0	20201	5.8	5
0	20202	5.8	3
0	20203	5.8	5
0	20204	5.8	8
0	20205	5.8	5
0	20206	5.8	3
0	20207	5.8	5
0	20208	5.8	3
0	20209	5.8	1
0	20210	5.8	1
0	20321	5.85	3
0	20322	5.85	5
0	20323	5.85	3
0	20324	5.85	5
0	20325	5.85	8
0	20326	5.85	5
0	20327	5.85	3
0	20328	5.85	5
0	20329	5.85	3
0	20330	5.85	1
0	20331	5.85	1
0	20420	5.9	3
0	20421	5.9	5
0	20422	5.9	3
0	20423	5.9	5
0	20424	5.9	8
0	20425	5.9	5
0	20426	5.9	3
0	20427	5.9	5
0	20428	5.9	3
0	20429	5.9	1
0	20430	5.9	1
0	20431	5.9	3
0	20432	5.9	5
0	20433	5.9	3
0	20434	5.9	5
0	20435	5.9	8
0	20436	5.9	5
0	20437	5.9	3
0	20438	5.9	5
0	20439	5.9	3
0	20440	5.9	1
0	20441	5.9	1
0	20552	5.95	3
0	20553	5.95	5
0	20554	5.95	3
0	20555	5.95	5
0	20556	5.95	8
0	20557	5.95	5
0	20558	5.95	3
0	20559	5.95	5
0	20560	5.95	3
0	20561	5.95	1
0	20562	5.95	1
0	20672	6	3
0	20673	6	5
0	20674	6	3
0	20675	6	5
0	20676	6	8
0	20677	6	5
0	20678	6	3
0	20679	6	5
0	20680	6	3
0	20681	6	1
0	20682	6	1
0	20683	6	3
0	20684	6	5
0	20685	6	3
0	20686	6	5
0	20687	6	8
0	20688	6	5
0	20689	6	3
0	20690	6	5
0	20691	6	3
0	20692	6	1
0	20693	6	1
0	20913	6.05	3
0	20914	6.05	5
0	20915	6.05	3
0	20916	6.05	5
0	20917	6.05	8
0	20918	6.05	5
0	20919	6.05	3
0	20920	6.05	5
0	20921	6.05	3
0	20922	6.05	1
0	20923	6.05	1
0	21405	6.1	3
0	21406	6.1	5
0	21407	6.1	3
0	21408	6.1	5
0	21409	6.1	8
0	21410	6.1	5
0	21411	6.1	3
0	21412	6.1	5
0	21413	6.1	3
0	21414	6.1	1
0	21415	6.1	1
0	21416	6.1	3
0	21417	6.1	5
0	21418	6.1	3
0	21419	6.1	5
0	21420	6.1	8
0	21421	6.1	5
0	21422	6.1	3
0	21423	6.1	5
0	21424	6.1	3
0	21425	6.1	1
0	21426	6.1	1
0	21584	6.15	3
0	21585	6.15	5
0	21586	6.15	3
0	21587	6.15	5
0	21588	6.15	8
0	21589	6.15	5
0	21590	6.15	3
0	21591	6.15	5
0	21592	6.15	3
0	21593	6.15	1
0	21594	6.15	1
0	21792	6.2	3
0	21793	6.2	5
0	21794	6.2	3
0	21795	6.2	5
0	21796	6.2	8
0	21797	6.2	5
0	21798	6.2	3
0	21799	6.2	5
0	21800	6.2	3
0	21801	6.2	1
0	21802	6.2	1
0	21803	6.2	3
0	21804	6.2	5
0	21805	6.2	3
0	21806	6.2	5
0	21807	6.2	8
0	21808	6.2	5
0	21809	6.2	3
0	21810	6.2	5
0	21811	6.2	3
0	21812	6.2	1
0	21813	6.2	1
0	21998	6.25	3
0	21999	6.25	5
0	22000	6.25	3
0	22001	6.25	5
0	22002	6.25	8
0	22003	6.25	5
0	22004	6.25	3
0	22005	6.25	5
0	22006	6.25	3
0	22007	6.25	1
0	22008	6.25	1
0	22097	6.3	3
0	22098	6.3	5
0	22099	6.3	3
0	22100	6.3	5
0	22101	6.3	8
0	22102	6.3	5
0	22103	6.3	3
0	22104	6.3	5
0	22105	6.3	3
0	22106	6.3	1
0	22107	6.3	1
0	22108	6.3	3
0	22109	6.3	5
0	22110	6.3	3
0	22111	6.3	5
0	22112	6.3	8
0	22113	6.3	5
0	22114	6.3	3
0	22115	6.3	5
0	22116	6.3	3
0	22117	6.3	1
0	22118	6.3	1
0	22229	6.35	3
0	22230	6.35	5
0	22231	6.35	3
0	22232	6.35	5
0	22233	6.35	8
0	22234	6.35	5
0	22235	6.35	3
0	22236	6.35	5
0	22237	6.35	3
0	22238	6.35	1
0	22239	6.35	1
0	22328	6.4	3
0	22329	6.4	5
0	22330	6.4	3
0	22331	6.4	5
0	22332	6.4	8
0	22333	6.4	5
0	22334	6.4	3
0	22335	6.4	5
0	22336	6.4	3
0	22337	6.4	1
0	22338	6.4	1
0	22339	6.4	3
0	22340	6.4	5
0	22341	6.4	3
0	22342	6.4	5
0	22343	6.4	8
0	22344	6.4	5
0	22345	6.4	3
0	22346	6.4	5
0	22347	6.4	3
0	22348	6.4	1
0	22349	6.4	1
0	22460	6.45	3
0	22461	6.45	5
0	22462	6.45	3
0	22463	6.45	5
0	22464	6.45	8
0	22465	6.45	5
0	22466	6.45	3
0	22467	6.45	5
0	22468	6.45	3
0	22469	6.45	1
0	22470	6.45	1
0	22570	6.5	3
0	22571	6.5	5
0	22572	6.5	3
0	22573	6.5	5
0	22574	6.5	8
0	22575	6.5	5
0	22576	6.5	3
0	22577	6.5	5
0	22578	6.5	3
0	22579	6.5	1
0	22580	6.5	1
0	22581	6.5	3
0	22582	6.5	5
0	22583	6.5	3
0	22584	6.5	5
0	22585	6.5	8
0	22586	6.5	5
0	22587	6.5	3
0	22588	6.5	5
0	22589	6.5	3
0	22590	6.5	1
0	22591	6.5	1
0	22707	6.55	3
0	22708	6.55	5
0	22709	6.55	3
0	22710	6.55	5
0	22711	6.55	8
0	22712	6.55	5
0	22713	6.55	3
0	22714	6.55	5
0	22715	6.55	3
0	22716	6.55	1
0	22717	6.55	1
0	22958	6.6	3
0	22959	6.6	5
0	22960	6.6	3
0	22961	6.6	5
0	22962	6.6	8
0	22963	6.6	5
0	22964	6.6	3
0	22965	6.6	5
0	22966	6.6	3
0	22967	6.6	1
0	22968	6.6	1
0	22969	6.6	3
0	22970	6.6	5
0	22971	6.6	3
0	22972	6.6	5
0	22973	6.6	8
0	22974	6.6	5
0	22975	6.6	3
0	22976	6.6	5
0	22977	6.6	3
0	22978	6.6	1
0	22979	6.6	1
0	23555	6.65	3
0	23556	6.65	5
0	23557	6.65	3
0	23558	6.65	5
0	23559	6.65	8
0	23560	6.65	5
0	23561	6.65	3
0	23562	6.65	5
0	23563	6.65	3
0	23564	6.65	1
0	23565	6.65	1
0	24003	6.7	3
0	24004	6.7	5
0	24005	6.7	3
0	24006	6.7	5
0	24007	6.7	8
0	24008	6.7	5
0	24009	6.7	3
0	24010	6.7	5
0	24011	6.7	3
0	24012	6.7	1
0	24013	6.7	1
0	24014	6.7	3
0	24015	6.7	5
0	24016	6.7	3
0	24017	6.7	5
0	24018	6.7	8
0	24019	6.7	5
0	24020	6.7	3
0	24021	6.7	5
0	24022	6.7	3
0	24023	6.7	1
0	24024	6.7	1
0	24332	6.75	3
0	24333	6.75	5
0	24334	6.75	3
0	24335	6.75	5
0	24336	6.75	8
0	24337	6.75	5
0	24338	6.75	3
0	24339	6.75	5
0	24340	6.75	3
0	24341	6.75	1
0	24342	6.75	1
0	24618	6.8	3
0	24619	6.8	5
0	24620	6.8	3
0	24621	6.8	5
0	24622	6.8	8
0	24623	6.8	5
0	24624	6.8	3
0	24625	6.8	5
0	24626	6.8	3
0	24627	6.8	1
0	24628	6.8	1
0	24629	6.8	3
0	24630	6.8	5
0	24631	6.8	3
0	24632	6.8	5
0	24633	6.8	8
0	24634	6.8	5
0	24635	6.8	3
0	24636	6.8	5
0	24637	6.8	3
0	24638	6.8	1
0	24639	6.8	1
0	24801	6.85	3
0	24802	6.85	5
0	24803	6.85	3
0	24804	6.85	5
0	24805	6.85	8
0	24806	6.85	5
0	24807	6.85	3
0	24808	6.85	5
0	24809	6.85	3
0	24810	6.85	1
0	24811	6.85	1
0	24944	6.9	3
0	24945	6.9	5
0	24946	6.9	3
0	24947	6.9	5
0	24948	6.9	8
0	24949	6.9	5
0	24950	6.9	3
0	24951	6.9	5
0	24952	6.9	3
0	24953	6.9	1
0	24954	6.9	1
0	24955	6.9	3
0	24956	6.9	5
0	24957	6.9	3
0	24958	6.9	5
0	24959	6.9	8
0	24960	6.9	5
0	24961	6.9	3
0	24962	6.9	5
0	24963	6.9	3
0	24964	6.9	1
0	24965	6.9	1
0	25076	6.95	3
0	25077	6.95	5
0	25078	6.95	3
0	25079	6.95	5
0	25080	6.95	8
0	25081	6.95	5
0	25082	6.95	3
0	25083	6.95	5
0	25084	6.95	3
0	25085	6.95	1
0	25086	6.95	1
0	25186	7	3
0	25187	7	5
0	25188	7	3
0	25189	7	5
0	25190	7	8
0	25191	7	5
0	25192	7	3
0	25193	7	5
0	25194	7	3
0	25195	7	1
0	25196	7	1
0	25197	7	3
0	25198	7	5
0	25199	7	3
0	25200	7	5
0	25201	7	8
0	25202	7	5
0	25203	7	3
0	25204	7	5
0	25205	7	3
0	25206	7	1
0	25207	7	1
0	25318	7.05	3
0	25319	7.05	5
0	25320	7.05	3
0	25321	7.05	5
0	25322	7.05	8
0	25323	7.05	5
0	25324	7.05	3
0	25325	7.05	5
0	25326	7.05	3
0	25327	7.05	1
0	25328	7.05	1
0	25428	7.1	3
0	25429	7.1	5
0	25430	7.1	3
0	25431	7.1	5
0	25432	7.1	8
0	25433	7.1	5
0	25434	7.1	3
0	25435	7.1	5
0	25436	7.1	3
0	25437	7.1	1
0	25438	7.1	1
0	25439	7.1	3
0	25440	7.1	5
0	25441	7.1	3
0	25442	7.1	5
0	25443	7.1	8
0	25444	7.1	5
0	25445	7.1	3
0	25446	7.1	5
0	25447	7.1	3
0	25448	7.1	1
0	25449	7.1	1
0	25661	7.15	3
0	25662	7.15	5
0	25663	7.15	3
0	25664	7.15	5
0	25665	7.15	8
0	25666	7.15	5
0	25667	7.15	3
0	25668	7.15	5
0	25669	7.15	3
0	25670	7.15	1
0	25671	7.15	1
0	26187	7.2	3
0	26188	7.2	5
0	26189	7.2	3
0	26190	7.2	5
0	26191	7.2	8
0	26192	7.2	5
0	26193	7.2	3
0	26194	7.2	5
0	26195	7.2	3
0	26196	7.2	1
0	26197	7.2	1
0	26198	7.2	3
0	26199	7.2	5
0	26200	7.2	3
0	26201	7.2	5
0	26202	7.2	8
0	26203	7.2	5
0	26204	7.2	3
0	26205	7.2	5
0	26206	7.2	3
0	26207	7.2	1
0	26208	7.2	1
0	26378	7.25	3
0	26379	7.25	5
0	26380	7.25	3
0	26381	7.25	5
0	26382	7.25	8
0	26383	7.25	5
0	26384	7.25	3
0	26385	7.25	5
0	26386	7.25	3
0	26387	7.25	1
0	26388	7.25	1
0	26533	7.3	3
0	26534	7.3	5
0	26535	7.3	3
0	26536	7.3	5
0	26537	7.3	8
0	26538	7.3	5
0	26539	7.3	3
0	26540	7.3	5
0	26541	7.3	3
0	26542	7.3	1
0	26543	7.3	1
0	26544	7.3	3
0	26545	7.3	5
0	26546	7.3	3
0	26547	7.3	5
0	26548	7.3	8
0	26549	7.3	5
0	26550	7.3	3
0	26551	7.3	5
0	26552	7.3	3
0	26553	7.3	1
0	26554	7.3	1
0	26750	7.35	3
0	26751	7.35	5
0	26752	7.35	3
0	26753	7.35	5
0	26754	7.35	8
0	26755	7.35	5
0	26756	7.35	3
0	26757	7.35	5
0	26758	7.35	3
0	26759	7.35	1
0	26760	7.35	1
0	26849	7.4	3
0	26850	7.4	5
0	26851	7.4	3
0	26852	7.4	5
0	26853	7.4	8
0	26854	7.4	5
0	26855	7.4	3
0	26856	7.4	5
0	26857	7.4	3
0	26858	7.4	1
0	26859	7.4	1
0	26860	7.4	3
0	26861	7.4	5
0	26862	7.4	3
0	26863	7.4	5
0	26864	7.4	8
0	26865	7.4	5
0	26866	7.4	3
0	26867	7.4	5
0	26868	7.4	3
0	26869	7.4	1
0	26870	7.4	1
0	27004	7.45	3
0	27005	7.45	5
0	27006	7.45	3
0	27007	7.45	5
0	27008	7.45	8
0	27009	7.45	5
0	27010	7.45	3
0	27011	7.45	5
0	27012	7.45	3
0	27013	7.45	1
0	27014	7.45	1
0	27103	7.5	3
0	27104	7.5	5
0	27105	7.5	3
0	27106	7.5	5
0	27107	7.5	8
0	27108	7.5	5
0	27109	7.5	3
0	27110	7.5	5
0	27111	7.5	3
0	27112	7.5	1
0	27113	7.5	1
0	27114	7.5	3
0	27115	7.5	5
0	27116	7.5	3
0	27117	7.5	5
0	27118	7.5	8
0	27119	7.5	5
0	27120	7.5	3
0	27121	7.5	5
0	27122	7.5	3
0	27123	7.5	1
0	27124	7.5	1
0	27235	7.55	3
0	27236	7.55	5
0	27237	7.55	3
0	27238	7.55	5
0	27239	7.55	8
0	27240	7.55	5
0	27241	7.55	3
0	27242	7.55	5
0	27243	7.55	3
0	27244	7.55	1
0	27245	7.55	1
0	27334	7.6	3
0	27335	7.6	5
0	27336	7.6	3
0	27337	7.6	5
0	27338	7.6	8
0	27339	7.6	5
0	27340	7.6	3
0	27341	7.6	5
0	27342	7.6	3
0	27343	7.6	1
0	27344	7.6	1
0	27345	7.6	3
0	27346	7.6	5
0	27347	7.6	3
0	27348	7.6	5
0	27349	7.6	8
0	27350	7.6	5
0	27351	7.6	3
0	27352	7.6	5
0	27353	7.6	3
0	27354	7.6	1
0	27355	7.6	1
0	27466	7.65	3
0	27467	7.65	5
0	27468	7.65	3
0	27469	7.65	5
0	27470	7.65	8
0	27471	7.65	5
0	27472	7.65	3
0	27473	7.65	5
0	27474	7.65	3
0	27475	7.65	1
0	27476	7.65	1
0	27610	7.7	3
0	27611	7.7	5
0	27612	7.7	3
0	27613	7.7	5
0	27614	7.7	8
0	27615	7.7	5
0	27616	7.7	3
0	27617	7.7	5
0	27618	7.7	3
0	27619	7.7	1
0	27620	7.7	1
0	27621	7.7	3
0	27622	7.7	5
0	27623	7.7	3
0	27624	7.7	5
0	27625	7.7	8
0	27626	7.7	5
0	27627	7.7	3
0	27628	7.7	5
0	27629	7.7	3
0	27630	7.7	1
0	27631	7.7	1
0	28103	7.75	3
0	28104	7.75	5
0	28105	7.75	3
0	28106	7.75	5
0	28107	7.75	8
0	28108	7.75	5
0	28109	7.75	3
0	28110	7.75	5
0	28111	7.75	3
0	28112	7.75	1
0	28113	7.75	1
0	28235	7.8	3
0	28236	7.8	5
0	28237	7.8	3
0	28238	7.8	5
0	28239	7.8	8
0	28240	7.8	5
0	28241	7.8	3
0	28242	7.8	5
0	28243	7.8	3
0	28244	7.8	1
0	28245	7.8	1
0	28246	7.8	3
0	28247	7.8	5
0	28248	7.8	3
0	28249	7.8	5
0	28250	7.8	8
0	28251	7.8	5
0	28252	7.8	3
0	28253	7.8	5
0	28254	7.8	3
0	28255	7.8	1
0	28256	7.8	1
0	28430	7.85	3
0	28431	7.85	5
0	28432	7.85	3
0	28433	7.85	5
0	28434	7.85	8
0	28435	7.85	5
0	28436	7.85	3
0	28437	7.85	5
0	28438	7.85	3
0	28439	7.85	1
0	28440	7.85	1
0	28639	7.9	3
0	28640	7.9	5
0	28641	7.9	3
0	28642	7.9	5
0	28643	7.9	8
0	28644	7.9	5
0	28645	7.9	3
0	28646	7.9	5
0	28647	7.9	3
0	28648	7.9	1
0	28649	7.9	1
0	28650	7.9	3
0	28651	7.9	5
0	28652	7.9	3
0	28653	7.9	5
0	28654	7.9	8
0	28655	7.9	5
0	28656	7.9	3
0	28657	7.9	5
0	28658	7.9	3
0	28659	7.9	1
0	28660	7.9	1
0	28793	7.95	3
0	28794	7.95	5
0	28795	7.95	3
0	28796	7.95	5
0	28797	7.95	8
0	28798	7.95	5
0	28799	7.95	3
0	28800	7.95	5
0	28801	7.95	3
0	28802	7.95	1
0	28803	7.95	1
0	28915	8	3
0	28916	8	5
0	28917	8	3
0	28918	8	5
0	28919	8	8
0	28920	8	5
0	28921	8	3
0	28922	8	5
0	28923	8	3
0	28924	8	1
0	28925	8	1
0	28926	8	3
0	28927	8	5
0	28928	8	3
0	28929	8	5
0	28930	8	8
0	28931	8	5
0	28932	8	3
0	28933	8	5
0	28934	8	3
0	28935	8	1
0	28936	8	1
0	29047	8.05	3
0	29048	8.05	5
0	29049	8.05	3
0	29050	8.05	5
0	29051	8.05	8
0	29052	8.05	5
0	29053	8.05	3
0	29054	8.05	5
0	29055	8.05	3
0	29056	8.05	1
0	29057	8.05	1
0	29157	8.1	3
0	29158	8.1	5
0	29159	8.1	3
0	29160	8.1	5
0	29161	8.1	8
0	29162	8.1	5
0	29163	8.1	3
0	29164	8.1	5
0	29165	8.1	3
0	29166	8.1	1
0	29167	8.1	1
0	29168	8.1	3
0	29169	8.1	5
0	29170	8.1	3
0	29171	8.1	5
0	29172	8.1	8
0	29173	8.1	5
0	29174	8.1	3
0	29175	8.1	5
0	29176	8.1	3
0	29177	8.1	1
0	29178	8.1	1
0	29307	8.15	3
0	29308	8.15	5
0	29309	8.15	3
0	29310	8.15	5
0	29311	8.15	8
0	29312	8.15	5
0	29313	8.15	3
0	29314	8.15	5
0	29315	8.15	3
0	29316	8.15	1
0	29317	8.15	1
0	29457	8.2	3
0	29458	8.2	5
0	29459	8.2	3
0	29460	8.2	5
0	29461	8.2	8
0	29462	8.2	5
0	29463	8.2	3
0	29464	8.2	5
0	29465	8.2	3
0	29466	8.2	1
0	29467	8.2	1
0	29468	8.2	3
0	29469	8.2	5
0	29470	8.2	3
0	29471	8.2	5
0	29472	8.2	8
0	29473	8.2	5
0	29474	8.2	3
0	29475	8.2	5
0	29476	8.2	3
0	29477	8.2	1
0	29478	8.2	1
0	29597	8.25	3
0	29598	8.25	5
0	29599	8.25	3
0	29600	8.25	5
0	29601	8.25	8
0	29602	8.25	5
0	29603	8.25	3
0	29604	8.25	5
0	29605	8.25	3
0	29606	8.25	1
0	29607	8.25	1
0	30019	8.3	3
0	30020	8.3	5
0	30021	8.3	3
0	30022	8.3	5
0	30023	8.3	8
0	30024	8.3	5
0	30025	8.3	3
0	30026	8.3	5
0	30027	8.3	3
0	30028	8.3	1
0	30029	8.3	1
0	30030	8.3	3
0	30031	8.3	5
0	30032	8.3	3
0	30033	8.3	5
0	30034	8.3	8
0	30035	8.3	5
0	30036	8.3	3
0	30037	8.3	5
0	30038	8.3	3
0	30039	8.3	1
0	30040	8.3	1
0	30180	8.35	3
0	30181	8.35	5
0	30182	8.35	3
0	30183	8.35	5
0	30184	8.35	8
0	30185	8.35	5
0	30186	8.35	3
0	30187	8.35	5
0	30188	8.35	3
0	30189	8.35	1
0	30190	8.35	1
0	30325	8.4	3
0	30326	8.4	5
0	30327	8.4	3
0	30328	8.4	5
0	30329	8.4	8
0	30330	8.4	5
0	30331	8.4	3
0	30332	8.4	5
0	30333	8.4	3
0	30334	8.4	1
0	30335	8.4	1
0	30336	8.4	3
0	30337	8.4	5
0	30338	8.4	3
0	30339	8.4	5
0	30340	8.4	8
0	30341	8.4	5
0	30342	8.4	3
0	30343	8.4	5
0	30344	8.4	3
0	30345	8.4	1
0	30346	8.4	1
0	30535	8.45	3
0	30536	8.45	5
0	30537	8.45	3
0	30538	8.45	5
0	30539	8.45	8
0	30540	8.45	5
0	30541	8.45	3
0	30542	8.45	5
0	30543	8.45	3
0	30544	8.45	1
0	30545	8.45	1
0	30661	8.5	3
0	30662	8.5	5
0	30663	8.5	3
0	30664	8.5	5
0	30665	8.5	8
0	30666	8.5	5
0	30667	8.5	3
0	30668	8.5	5
0	30669	8.5	3
0	30670	8.5	1
0	30671	8.5	1
0	30672	8.5	3
0	30673	8.5	5
0	30674	8.5	3
0	30675	8.5	5
0	30676	8.5	8
0	30677	8.5	5
0	30678	8.5	3
0	30679	8.5	5
0	30680	8.5	3
0	30681	8.5	1
0	30682	8.5	1
0	30816	8.55	3
0	30817	8.55	5
0	30818	8.55	3
0	30819	8.55	5
0	30820	8.55	8
0	30821	8.55	5
0	30822	8.55	3
0	30823	8.55	5
0	30824	8.55	3
0	30825	8.55	1
0	30826	8.55	1
0	30915	8.6	3
0	30916	8.6	5
0	30917	8.6	3
0	30918	8.6	5
0	30919	8.6	8
0	30920	8.6	5
0	30921	8.6	3
0	30922	8.6	5
0	30923	8.6	3
0	30924	8.6	1
0	30925	8.6	1
0	30926	8.6	3
0	30927	8.6	5
0	30928	8.6	3
0	30929	8.6	5
0	30930	8.6	8
0	30931	8.6	5
0	30932	8.6	3
0	30933	8.6	5
0	30934	8.6	3
0	30935	8.6	1
0	30936	8.6	1
0	31047	8.65	3
0	31048	8.65	5
0	31049	8.65	3
0	31050	8.65	5
0	31051	8.65	8
0	31052	8.65	5
0	31053	8.65	3
0	31054	8.65	5
0	31055	8.65	3
0	31056	8.65	1
0	31057	8.65	1
0	31220	8.7	3
0	31221	8.7	5
0	31222	8.7	3
0	31223	8.7	5
0	31224	8.7	8
0	31225	8.7	5
0	31226	8.7	3
0	31227	8.7	5
0	31228	8.7	3
0	31229	8.7	1
0	31230	8.7	1
0	31231	8.7	3
0	31232	8.7	5
0	31233	8.7	3
0	31234	8.7	5
0	31235	8.7	8
0	31236	8.7	5
0	31237	8.7	3
0	31238	8.7	5
0	31239	8.7	3
0	31240	8.7	1
0	31241	8.7	1
0	31413	8.75	3
0	31414	8.75	5
0	31415	8.75	3
0	31416	8.75	5
0	31417	8.75	8
0	31418	8.75	5
0	31419	8.75	3
0	31420	8.75	5
0	31421	8.75	3
0	31422	8.75	1
0	31423	8.75	1
0	31590	8.8	3
0	31591	8.8	5
0	31592	8.8	3
0	31593	8.8	5
0	31594	8.8	8
0	31595	8.8	5
0	31596	8.8	3
0	31597	8.8	5
0	31598	8.8	3
0	31599	8.8	1
0	31600	8.8	1
0	31601	8.8	3
0	31602	8.8	5
0	31603	8.8	3
0	31604	8.8	5
0	31605	8.8	8
0	31606	8.8	5
0	31607	8.8	3
0	31608	8.8	5
0	31609	8.8	3
0	31610	8.8	1
0	31611	8.8	1
0	32072	8.85	3
0	32073	8.85	5
0	32074	8.85	3
0	32075	8.85	5
0	32076	8.85	8
0	32077	8.85	5
0	32078	8.85	3
0	32079	8.85	5
0	32080	8.85	3
0	32081	8.85	1
0	32082	8.85	1
0	32236	8.9	3
0	32237	8.9	5
0	32238	8.9	3
0	32239	8.9	5
0	32240	8.9	8
0	32241	8.9	5
0	32242	8.9	3
0	32243	8.9	5
0	32244	8.9	3
0	32245	8.9	1
0	32246	8.9	1
0	32247	8.9	3
0	32248	8.9	5
0	32249	8.9	3
0	32250	8.9	5
0	32251	8.9	8
0	32252	8.9	5
0	32253	8.9	3
0	32254	8.9	5
0	32255	8.9	3
0	32256	8.9	1
0	32257	8.9	1
0	32419	8.95	3
0	32420	8.95	5
0	32421	8.95	3
0	32422	8.95	5
0	32423	8.95	8
0	32424	8.95	5
0	32425	8.95	3
0	32426	8.95	5
0	32427	8.95	3
0	32428	8.95	1
0	32429	8.95	1
0	32604	9	3
0	32605	9	5
0	32606	9	3
0	32607	9	5
0	32608	9	8
0	32609	9	5
0	32610	9	3
0	32611	9	5
0	32612	9	3
0	32613	9	1
0	32614	9	1
0	32615	9	3
0	32616	9	5
0	32617	9	3
0	32618	9	5
0	32619	9	8
0	32620	9	5
0	32621	9	3
0	32622	9	5
0	32623	9	3
0	32624	9	1
0	32625	9	1
0	32736	9.05	3
0	32737	9.05	5
0	32738	9.05	3
0	32739	9.05	5
0	32740	9.05	8
0	32741	9.05	5
0	32742	9.05	3
0	32743	9.05	5
0	32744	9.05	3
0	32745	9.05	1
0	32746	9.05	1
0	32869	9.1	3
0	32870	9.1	5
0	32871	9.1	3
0	32872	9.1	5
0	32873	9.1	8
0	32874	9.1	5
0	32875	9.1	3
0	32876	9.1	5
0	32877	9.1	3
0	32878	9.1	1
0	32879	9.1	1
0	32880	9.1	3
0	32881	9.1	5
0	32882	9.1	3
0	32883	9.1	5
0	32884	9.1	8
0	32885	9.1	5
0	32886	9.1	3
0	32887	9.1	5
0	32888	9.1	3
0	32889	9.1	1
0	32890	9.1	1
0	33014	9.15	3
0	33015	9.15	5
0	33016	9.15	3
0	33017	9.15	5
0	33018	9.15	8
0	33019	9.15	5
0	33020	9.15	3
0	33021	9.15	5
0	33022	9.15	3
0	33023	9.15	1
0	33024	9.15	1
0	33113	9.2	3
0	33114	9.2	5
0	33115	9.2	3
0	33116	9.2	5
0	33117	9.2	8
0	33118	9.2	5
0	33119	9.2	3
0	33120	9.2	5
0	33121	9.2	3
0	33122	9.2	1
0	33123	9.2	1
0	33124	9.2	3
0	33125	9.2	5
0	33126	9.2	3
0	33127	9.2	5
0	33128	9.2	8
0	33129	9.2	5
0	33130	9.2	3
0	33131	9.2	5
0	33132	9.2	3
0	33133	9.2	1
0	33134	9.2	1
0	33318	9.25	3
0	33319	9.25	5
0	33320	9.25	3
0	33321	9.25	5
0	33322	9.25	8
0	33323	9.25	5
0	33324	9.25	3
0	33325	9.25	5
0	33326	9.25	3
0	33327	9.25	1
0	33328	9.25	1
0	33478	9.3	3
0	33479	9.3	5
0	33480	9.3	3
0	33481	9.3	5
0	33482	9.3	8
0	33483	9.3	5
0	33484	9.3	3
0	33485	9.3	5
0	33486	9.3	3
0	33487	9.3	1
0	33488	9.3	1
0	33489	9.3	3
0	33490	9.3	5
0	33491	9.3	3
0	33492	9.3	5
0	33493	9.3	8
0	33494	9.3	5
0	33495	9.3	3
0	33496	9.3	5
0	33497	9.3	3
0	33498	9.3	1
0	33499	9.3	1
0	33667	9.35	3
0	33668	9.35	5
0	33669	9.35	3
0	33670	9.35	5
0	33671	9.35	8
0	33672	9.35	5
0	33673	9.35	3
0	33674	9.35	5
0	33675	9.35	3
0	33676	9.35	1
0	33677	9.35	1
0	34138	9.4	3
0	34139	9.4	5
0	34140	9.4	3
0	34141	9.4	5
0	34142	9.4	8
0	34143	9.4	5
0	34144	9.4	3
0	34145	9.4	5
0	34146	9.4	3
0	34147	9.4	1
0	34148	9.4	1
0	34149	9.4	3
0	34150	9.4	5
0	34151	9.4	3
0	34152	9.4	5
0	34153	9.4	8
0	34154	9.4	5
0	34155	9.4	3
0	34156	9.4	5
0	34157	9.4	3
0	34158	9.4	1
0	34159	9.4	1
0	34326	9.45	3
0	34327	9.45	5
0	34328	9.45	3
0	34329	9.45	5
0	34330	9.45	8
0	34331	9.45	5
0	34332	9.45	3
0	34333	9.45	5
0	34334	9.45	3
0	34335	9.45	1
0	34336	9.45	1
0	34517	9.5	3
0	34518	9.5	5
0	34519	9.5	3
0	34520	9.5	5
0	34521	9.5	8
0	34522	9.5	5
0	34523	9.5	3
0	34524	9.5	5
0	34525	9.5	3
0	34526	9.5	1
0	34527	9.5	1
0	34528	9.5	3
0	34529	9.5	5
0	34530	9.5	3
0	34531	9.5	5
0	34532	9.5	8
0	34533	9.5	5
0	34534	9.5	3
0	34535	9.5	5
0	34536	9.5	3
0	34537	9.5	1
0	34538	9.5	1
0	34735	9.55	3
0	34736	9.55	5
0	34737	9.55	3
0	34738	9.55	5
0	34739	9.55	8
0	34740	9.55	5
0	34741	9.55	3
0	34742	9.55	5
0	34743	9.55	3
0	34744	9.55	1
0	34745	9.55	1
0	34834	9.6	3
0	34835	9.6	5
0	34836	9.6	3
0	34837	9.6	5
0	34838	9.6	8
0	34839	9.6	5
0	34840	9.6	3
0	34841	9.6	5
0	34842	9.6	3
0	34843	9.6	1
0	34844	9.6	1
0	34845	9.6	3
0	34846	9.6	5
0	34847	9.6	3
0	34848	9.6	5
0	34849	9.6	8
0	34850	9.6	5
0	34851	9.6	3
0	34852	9.6	5
0	34853	9.6	3
0	34854	9.6	1
0	34855	9.6	1
0	34994	9.65	3
0	34995	9.65	5
0	34996	9.65	3
0	34997	9.65	5
0	34998	9.65	8
0	34999	9.65	5
0	35000	9.65	3
0	35001	9.65	5
0	35002	9.65	3
0	35003	9.65	1
0	35004	9.65	1
0	35093	9.7	3
0	35094	9.7	5
0	35095	9.7	3
0	35096	9.7	5
0	35097	9.7	8
0	35098	9.7	5
0	35099	9.7	3
0	35100	9.7	5
0	35101	9.7	3
0	35102	9.7	1
0	35103	9.7	1
0	35104	9.7	3
0	35105	9.7	5
0	35106	9.7	3
0	35107	9.7	5
0	35108	9.7	8
0	35109	9.7	5
0	35110	9.7	3
0	35111	9.7	5
0	35112	9.7	3
0	35113	9.7	1
0	35114	9.7	1
0	35225	9.75	3
0	35226	9.75	5
0	35227	9.75	3
0	35228	9.75	5
0	35229	9.75	8
0	35230	9.75	5
0	35231	9.75	3
0	35232	9.75	5
0	35233	9.75	3
0	35234	9.75	1
0	35235	9.75	1
0	35391	9.8	3
0	35392	9.8	5
0	35393	9.8	3
0	35394	9.8	5
0	35395	9.8	8
0	35396	9.8	5
0	35397	9.8	3
0	35398	9.8	5
0	35399	9.8	3
0	35400	9.8	1
0	35401	9.8	1
0	35402	9.8	3
0	35403	9.8	5
0	35404	9.8	3
0	35405	9.8	5
0	35406	9.8	8
0	35407	9.8	5
0	35408	9.8	3
0	35409	9.8	5
0	35410	9.8	3
0	35411	9.8	1
0	35412	9.8	1
0	35563	9.85	3
0	35564	9.85	5
0	35565	9.85	3
0	35566	9.85	5
0	35567	9.85	8
0	35568	9.85	5
0	35569	9.85	3
0	35570	9.85	5
0	35571	9.85	3
0	35572	9.85	1
0	35573	9.85	1
0	35685	9.9	3
0	35686	9.9	5
0	35687	9.9	3
0	35688	9.9	5
0	35689	9.9	8
0	35690	9.9	5
0	35691	9.9	3
0	35692	9.9	5
0	35693	9.9	3
0	35694	9.9	1
0	35695	9.9	1
0	35696	9.9	3
0	35697	9.9	5
0	35698	9.9	3
0	35699	9.9	5
0	35700	9.9	8
0	35701	9.9	5
0	35702	9.9	3
0	35703	9.9	5
0	35704	9.9	3
0	35705	9.9	1
0	35706	9.9	1
0	36144	9.95	3
0	36145	9.95	5
0	36146	9.95	3
0	36147	9.95	5
0	36148	9.95	8
0	36149	9.95	5
0	36150	9.95	3
0	36151	9.95	5
0	36152	9.95	3
0	36153	9.95	1
0	36154	9.95	1
0	36248	10	3
0	36249	10	5
0	36250	10	3
0	36251	10	5
0	36252	10	8
0	36253	10	5
0	36254	10	3
0	36255	10	5
0	36256	10	3
0	36257	10	1
0	36258	10	1
0	36259	10	3
0	36260	10	5
0	36261	10	3
0	36262	10	5
0	36263	10	8
0	36264	10	5
0	36265	10	3
0	36266	10	5
0	36267	10	3
0	36268	10	1
0	36269	10	1
0	36425	10.05	3
0	36426	10.05	5
0	36427	10.05	3
0	36428	10.05	5
0	36429	10.05	8
0	36430	10.05	5
0	36431	10.05	3
0	36432	10.05	5
0	36433	10.05	3
0	36434	10.05	1
0	36435	10.05	1
0	36640	10.1	3
0	36641	10.1	5
0	36642	10.1	3
0	36643	10.1	5
0	36644	10.1	8
0	36645	10.1	5
0	36646	10.1	3
0	36647	10.1	5
0	36648	10.1	3
0	36649	10.1	1
0	36650	10.1	1
0	36651	10.1	3
0	36652	10.1	5
0	36653	10.1	3
0	36654	10.1	5
0	36655	10.1	8
0	36656	10.1	5
0	36657	10.1	3
0	36658	10.1	5
0	36659	10.1	3
0	36660	10.1	1
0	36661	10.1	1
0	36793	10.15	3
0	36794	10.15	5
0	36795	10.15	3
0	36796	10.15	5
0	36797	10.15	8
0	36798	10.15	5
0	36799	10.15	3
0	36800	10.15	5
0	36801	10.15	3
0	36802	10.15	1
0	36803	10.15	1
0	36915	10.2	3
0	36916	10.2	5
0	36917	10.2	3
0	36918	10.2	5
0	36919	10.2	8
0	36920	10.2	5
0	36921	10.2	3
0	36922	10.2	5
0	36923	10.2	3
0	36924	10.2	1
0	36925	10.2	1
0	36926	10.2	3
0	36927	10.2	5
0	36928	10.2	3
0	36929	10.2	5
0	36930	10.2	8
0	36931	10.2	5
0	36932	10.2	3
0	36933	10.2	5
0	36934	10.2	3
0	36935	10.2	1
0	36936	10.2	1
0	37047	10.25	3
0	37048	10.25	5
0	37049	10.25	3
0	37050	10.25	5
0	37051	10.25	8
0	37052	10.25	5
0	37053	10.25	3
0	37054	10.25	5
0	37055	10.25	3
0	37056	10.25	1
0	37057	10.25	1
0	37146	10.3	3
0	37147	10.3	5
0	37148	10.3	3
0	37149	10.3	5
0	37150	10.3	8
0	37151	10.3	5
0	37152	10.3	3
0	37153	10.3	5
0	37154	10.3	3
0	37155	10.3	1
0	37156	10.3	1
0	37157	10.3	3
0	37158	10.3	5
0	37159	10.3	3
0	37160	10.3	5
0	37161	10.3	8
0	37162	10.3	5
0	37163	10.3	3
0	37164	10.3	5
0	37165	10.3	3
0	37166	10.3	1
0	37167	10.3	1
0	37300	10.35	3
0	37301	10.35	5
0	37302	10.35	3
0	37303	10.35	5
0	37304	10.35	8
0	37305	10.35	5
0	37306	10.35	3
0	37307	10.35	5
0	37308	10.35	3
0	37309	10.35	1
0	37310	10.35	1
0	37422	10.4	3
0	37423	10.4	5
0	37424	10.4	3
0	37425	10.4	5
0	37426	10.4	8
0	37427	10.4	5
0	37428	10.4	3
0	37429	10.4	5
0	37430	10.4	3
0	37431	10.4	1
0	37432	10.4	1
0	37433	10.4	3
0	37434	10.4	5
0	37435	10.4	3
0	37436	10.4	5
0	37437	10.4	8
0	37438	10.4	5
0	37439	10.4	3
0	37440	10.4	5
0	37441	10.4	3
0	37442	10.4	1
0	37443	10.4	1
0	37621	10.45	3
0	37622	10.45	5
0	37623	10.45	3
0	37624	10.45	5
0	37625	10.45	8
0	37626	10.45	5
0	37627	10.45	3
0	37628	10.45	5
0	37629	10.45	3
0	37630	10.45	1
0	37631	10.45	1
0	38076	10.5	3
0	38077	10.5	5
0	38078	10.5	3
0	38079	10.5	5
0	38080	10.5	8
0	38081	10.5	5
0	38082	10.5	3
0	38083	10.5	5
0	38084	10.5	3
0	38085	10.5	1
0	38086	10.5	1
0	38087	10.5	3
0	38088	10.5	5
0	38089	10.5	3
0	38090	10.5	5
0	38091	10.5	8
0	38092	10.5	5
0	38093	10.5	3
0	38094	10.5	5
0	38095	10.5	3
0	38096	10.5	1
0	38097	10.5	1
0	38244	10.55	3
0	38245	10.55	5
0	38246	10.55	3
0	38247	10.55	5
0	38248	10.55	8
0	38249	10.55	5
0	38250	10.55	3
0	38251	10.55	5
0	38252	10.55	3
0	38253	10.55	1
0	38254	10.55	1
0	38412	10.6	3
0	38413	10.6	5
0	38414	10.6	3
0	38415	10.6	5
0	38416	10.6	8
0	38417	10.6	5
0	38418	10.6	3
0	38419	10.6	5
0	38420	10.6	3
0	38421	10.6	1
0	38422	10.6	1
0	38423	10.6	3
0	38424	10.6	5
0	38425	10.6	3
0	38426	10.6	5
0	38427	10.6	8
0	38428	10.6	5
0	38429	10.6	3
0	38430	10.6	5
0	38431	10.6	3
0	38432	10.6	1
0	38433	10.6	1
0	38710	10.65	3
0	38711	10.65	5
0	38712	10.65	3
0	38713	10.65	5
0	38714	10.65	8
0	38715	10.65	5
0	38716	10.65	3
0	38717	10.65	5
0	38718	10.65	3
0	38719	10.65	1
0	38720	10.65	1
0	38853	10.7	3
0	38854	10.7	5
0	38855	10.7	3
0	38856	10.7	5
0	38857	10.7	8
0	38858	10.7	5
0	38859	10.7	3
0	38860	10.7	5
0	38861	10.7	3
0	38862	10.7	1
0	38863	10.7	1
0	38864	10.7	3
0	38865	10.7	5
0	38866	10.7	3
0	38867	10.7	5
0	38868	10.7	8
0	38869	10.7	5
0	38870	10.7	3
0	38871	10.7	5
0	38872	10.7	3
0	38873	10.7	1
0	38874	10.7	1
0	39029	10.75	3
0	39030	10.75	5
0	39031	10.75	3
0	39032	10.75	5
0	39033	10.75	8
0	39034	10.75	5
0	39035	10.75	3
0	39036	10.75	5
0	39037	10.75	3
0	39038	10.75	1
0	39039	10.75	1
0	39161	10.8	3
0	39162	10.8	5
0	39163	10.8	3
0	39164	10.8	5
0	39165	10.8	8
0	39166	10.8	5
0	39167	10.8	3
0	39168	10.8	5
0	39169	10.8	3
0	39170	10.8	1
0	39171	10.8	1
0	39172	10.8	3
0	39173	10.8	5
0	39174	10.8	3
0	39175	10.8	5
0	39176	10.8	8
0	39177	10.8	5
0	39178	10.8	3
0	39179	10.8	5
0	39180	10.8	3
0	39181	10.8	1
0	39182	10.8	1
0	39293	10.85	3
0	39294	10.85	5
0	39295	10.85	3
0	39296	10.85	5
0	39297	10.85	8
0	39298	10.85	5
0	39299	10.85	3
0	39300	10.85	5
0	39301	10.85	3
0	39302	10.85	1
0	39303	10.85	1
1	133	0.1	-nan
1	135	0.1	-nan
1	137	0.1	-nan
1	139	0.1	-nan
1	141	0.1	-nan
1	143	0.1	-nan
1	145	0.1	-nan
1	147	0.1	-nan
1	149	0.1	-nan
1	151	0.1	-nan
1	153	0.1	-nan
1	2465	1.1	-nan
1	2466	1.1	-nan
1	2467	1.1	-nan
1	2468	1.1	-nan
1	2469	1.1	-nan
1	2470	1.1	-nan
1	2471	1.1	-nan
1	2472	1.1	-nan
1	2473	1.1	-nan
1	2474	1.1	-nan
1	2475	1.1	-nan
1	6444	2.1	-nan
1	6445	2.1	-nan
1	6446	2.1	-nan
1	6447	2.1	-nan
1	6448	2.1	-nan
1	6449	2.1	-nan
1	6450	2.1	-nan
1	6451	2.1	-nan
1	6452	2.1	-nan
1	6453	2.1	-nan
1	6454	2.1	-nan
1	10268	3.1	-nan
1	10269	3.1	-nan
1	10270	3.1	-nan
1	10271	3.1	-nan
1	10272	3.1	-nan
1	10273	3.1	-nan
1	10274	3.1	-nan
1	10275	3.1	-nan
1	10276	3.1	-nan
1	10277	3.1	-nan
1	10278	3.1	-nan
1	13975	4.1	-nan
1	13976	4.1	-nan
1	13977	4.1	-nan
1	13978	4.1	-nan
1	13979	4.1	-nan
1	13980	4.1	-nan
1	13981	4.1	-nan
1	13982	4.1	-nan
1	13983	4.1	-nan
1	13984	4.1	-nan
1	13985	4.1	-nan
1	17720	5.1	-nan
1	17721	5.1	-nan
1	17722	5.1	-nan
1	17723	5.1	-nan
1	17724	5.1	-nan
1	17725	5.1	-nan
1	17726	5.1	-nan
1	17727	5.1	-nan
1	17728	5.1	-nan
1	17729	5.1	-nan
1	17730	5.1	-nan
1	21394	6.1	-nan
1	21395	6.1	-nan
1	21396	6.1	-nan
1	21397	6.1	-nan
1	21398	6.1	-nan
1	21399	6.1	-nan
1	21400	6.1	-nan
1	21401	6.1	-nan
1	21402	6.1	-nan
1	21403	6.1	-nan
1	21404	6.1	-nan
1	25417	7.1	-nan
1	25418	7.1	-nan
1	25419	7.1	-nan
1	25420	7.1	-nan
1	25421	7.1	-nan
1	25422	7.1	-nan
1	25423	7.1	-nan
1	25424	7.1	-nan
1	25425	7.1	-nan
1	25426	7.1	-nan
1	25427	7.1	-nan
1	29146	8.1	-nan
1	29147	8.1	-nan
1	29148	8.1	-nan
1	29149	8.1	-nan
1	29150	8.1	-nan
1	29151	8.1	-nan
1	29152	8.1	-nan
1	29153	8.1	-nan
1	29154	8.1	-nan
1	29155	8.1	-nan
1	29156	8.1	-nan
1	32858	9.1	-nan
1	32859	9.1	-nan
1	32860	9.1	-nan
1	32861	9.1	-nan
1	32862	9.1	-nan
1	32863	9.1	-nan
1	32864	9.1	-nan
1	32865	9.1	-nan
1	32866	9.1	-nan
1	32867	9.1	-nan
1	32868	9.1	-nan
1	36629	10.1	-nan
1	36630	10.1	-nan
1	36631	10.1	-nan
1	36632	10.1	-nan
1	36633	10.1	-nan
1	36634	10.1	-nan
1	36635	10.1	-nan
1	36636	10.1	-nan
1	36637	10.1	-nan
1	36638	10.1	-nan
1	36639	10.1	-nan
2	22931	6.583626728067	141
2	22953	6.597466728067	282
2	23136	6.602296785734	423
2	23147	6.611306728067	564
2	23266	6.616136785734	705
2	23318	6.625146728067	846
2	23365	6.629976785734	987
2	23379	6.63342031478	1128
2	23424	6.638986728067	1269
2	23461	6.643816785734	1410
2	23512	6.64726031478	1551
2	23670	6.652826728067	1692
2	23713	6.657656785734	1833
2	23732	6.66110031478	1974
2	23766	6.666666728067	2115
2	23777	6.667664192201	2256
2	23805	6.671496785734	2397
2	23832	6.67494031478	2538
2	23851	6.678784192201	2679
2	23882	6.681504192201	2820
2	23931	6.68878031478	2961
2	23962	6.692624192201	3102
2	23990	6.695344192201	3243
2	24149	6.70262031478	3384
2	24168	6.706464192201	3525
2	24179	6.709184192201	3666
2	24205	6.71646031478	3807
2	24233	6.720304192201	3948
2	24259	6.734144192201	4089
2	24279	6.736864192201	4230
2	24310	6.747984192201	4371
2	24445	6.750704192201	4512
2	24488	6.761824192201	4653
2	24613	6.798352534095	4794
2	24766	6.812192534095	4935
2	24785	6.826032534095	5076
2	24906	6.853712534095	5217
2	24925	6.867552534095	5358
2	25656	7.148426728067	5499
2	25808	7.162266728067	5640
2	26051	7.18342031478	5781
2	26334	7.213226728067	5922
2	26356	7.231504192201	6063
2	28222	7.767664192201	6204
2	28615	7.883626728067	6345
2	28634	7.897466728067	6486
2	28785	7.911306728067	6627
2	29452	8.198272534095	6768
2	29958	8.28342031478	6909
2	30530	8.448426728067	7050
2	30648	8.462266728067	7191
2	31520	8.752296785734	7332
2	31546	8.766136785734	7473
2	31574	8.779976785734	7614
2	32181	8.858384192201	7755
2	33465	9.283626728067	7896
2	33643	9.333626728067	8037
2	33662	9.347466728067	8178
2	34054	9.38342031478	8319
2	34289	9.408384192201	8460
2	36624	10.098426728067	8601
2	37608	10.433626728067	8742
2	38007	10.48342031478	8883
2	38216	10.508384192201	9024
2	38672	10.63396899642	9165
2	38705	10.648426728067	9306
2	38826	10.67548899642	9447
2	38845	10.68932899642	9588
2	38999	10.71700899642	9729
2	39016	10.74468899642	9870
2	39134	10.75852899642	10011
2	39148	10.77236899642	10152
3	22931	6.583626728067	141
3	22953	6.597466728067	282
3	23136	6.602296785734	423
3	23147	6.611306728067	564
3	23266	6.616136785734	705
3	23318	6.625146728067	846
3	23365	6.629976785734	987
3	23379	6.63342031478	1128
3	23424	6.638986728067	1269
3	23461	6.643816785734	1410
3	23512	6.64726031478	1551
3	23670	6.652826728067	1692
3	23713	6.657656785734	1833
3	23732	6.66110031478	1974
3	23766	6.666666728067	2115
3	23777	6.667664192201	2256
3	23805	6.671496785734	2397
3	23832	6.67494031478	2538
3	23851	6.678784192201	2679
3	23882	6.681504192201	2820
3	23931	6.68878031478	2961
3	23962	6.692624192201	3102
3	23990	6.695344192201	3243
3	24149	6.70262031478	3384
3	24168	6.706464192201	3525
3	24179	6.709184192201	3666
3	24205	6.71646031478	3807
3	24233	6.720304192201	3948
3	24259	6.734144192201	4089
3	24279	6.736864192201	4230
3	24310	6.747984192201	4371
3	24445	6.750704192201	4512
3	24488	6.761824192201	4653
3	24613	6.798352534095	4794
3	24766	6.812192534095	4935
3	24785	6.826032534095	5076
3	24906	6.853712534095	5217
3	24925	6.867552534095	5358
3	25656	7.148426728067	5499
3	25808	7.162266728067	5640
3	26051	7.18342031478	5781
3	26334	7.213226728067	5922
3	26356	7.231504192201	6063
3	28222	7.767664192201	6204
3	28615	7.883626728067	6345
3	28634	7.897466728067	6486
3	28785	7.911306728067	6627
3	29452	8.198272534095	6768
3	29958	8.28342031478	6909
3	30530	8.448426728067	7050
3	30648	8.462266728067	7191
3	31520	8.752296785734	7332
3	31546	8.766136785734	7473
3	31574	8.779976785734	7614
3	32181	8.858384192201	7755
3	33465	9.283626728067	7896
3	33643	9.333626728067	8037
3	33662	9.347466728067	8178
3	34054	9.38342031478	8319
3	34289	9.408384192201	8460
3	36624	10.098426728067	8601
3	37608	10.433626728067	8742
3	38007	10.48342031478	8883
3	38216	10.508384192201	9024
3	38672	10.63396899642	9165
3	38705	10.648426728067	9306
3	38826	10.67548899642	9447
3	38845	10.68932899642	9588
3	38999	10.71700899642	9729
3	39016	10.74468899642	9870
3	39134	10.75852899642	10011
3	39148	10.77236899642	10152
0	39409	10.9	3
0	39410	10.9	5
0	39411	10.9	3
0	39412	10.9	5
0	39413	10.9	8
0	39414	10.9	5
0	39415	10.9	3
0	39416	10.9	5
0	39417	10.9	3
0	39418	10.9	1
0	39419	10.9	1
0	39420	10.9	3
0	39421	10.9	5
0	39422	10.9	3
0	39423	10.9	5
0	39424	10.9	8
0	39425	10.9	5
0	39426	10.9	3
0	39427	10.9	5
0	39428	10.9	3
0	39429	10.9	1
0	39430	10.9	1
0	39564	10.95	3
0	39565	10.95	5
0	39566	10.95	3
0	39567	10.95	5
0	39568	10.95	8
0	39569	10.95	5
0	39570	10.95	3
0	39571	10.95	5
0	39572	10.95	3
0	39573	10.95	1
0	39574	10.95	1
0	39714	11	3
0	39715	11	5
0	39716	11	3
0	39717	11	5
0	39718	11	8
0	39719	11	5
0	39720	11	3
0	39721	11	5
0	39722	11	3
0	39723	11	1
0	39724	11	1
0	39725	11	3
0	39726	11	5
0	39727	11	3
0	39728	11	5
0	39729	11	8
0	39730	11	5
0	39731	11	3
0	39732	11	5
0	39733	11	3
0	39734	11	1
0	39735	11	1
0	40189	11.05	3
0	40190	11.05	5
0	40191	11.05	3
0	40192	11.05	5
0	40193	11.05	8
0	40194	11.05	5
0	40195	11.05	3
0	40196	11.05	5
0	40197	11.05	3
0	40198	11.05	1
0	40199	11.05	1
0	40327	11.1	3
0	40328	11.1	5
0	40329	11.1	3
0	40330	11.1	5
0	40331	11.1	8
0	40332	11.1	5
0	40333	11.1	3
0	40334	11.1	5
0	40335	11.1	3
0	40336	11.1	1
0	40337	11.1	1
0	40338	11.1	3
0	40339	11.1	5
0	40340	11.1	3
0	40341	11.1	5
0	40342	11.1	8
0	40343	11.1	5
0	40344	11.1	3
0	40345	11.1	5
0	40346	11.1	3
0	40347	11.1	1
0	40348	11.1	1
0	40500	11.15	3
0	40501	11.15	5
0	40502	11.15	3
0	40503	11.15	5
0	40504	11.15	8
0	40505	11.15	5
0	40506	11.15	3
0	40507	11.15	5
0	40508	11.15	3
0	40509	11.15	1
0	40510	11.15	1
0	40694	11.2	3
0	40695	11.2	5
0	40696	11.2	3
0	40697	11.2	5
0	40698	11.2	8
0	40699	11.2	5
0	40700	11.2	3
0	40701	11.2	5
0	40702	11.2	3
0	40703	11.2	1
0	40704	11.2	1
0	40705	11.2	3
0	40706	11.2	5
0	40707	11.2	3
0	40708	11.2	5
0	40709	11.2	8
0	40710	11.2	5
0	40711	11.2	3
0	40712	11.2	5
0	40713	11.2	3
0	40714	11.2	1
0	40715	11.2	1
0	40849	11.25	3
0	40850	11.25	5
0	40851	11.25	3
0	40852	11.25	5
0	40853	11.25	8
0	40854	11.25	5
0	40855	11.25	3
0	40856	11.25	5
0	40857	11.25	3
0	40858	11.25	1
0	40859	11.25	1
0	40948	11.3	3
0	40949	11.3	5
0	40950	11.3	3
0	40951	11.3	5
0	40952	11.3	8
0	40953	11.3	5
0	40954	11.3	3
0	40955	11.3	5
0	40956	11.3	3
0	40957	11.3	1
0	40958	11.3	1
0	40959	11.3	3
0	40960	11.3	5
0	40961	11.3	3
0	40962	11.3	5
0	40963	11.3	8
0	40964	11.3	5
0	40965	11.3	3
0	40966	11.3	5
0	40967	11.3	3
0	40968	11.3	1
0	40969	11.3	1
0	41080	11.35	3
0	41081	11.35	5
0	41082	11.35	3
0	41083	11.35	5
0	41084	11.35	8
0	41085	11.35	5
0	41086	11.35	3
0	41087	11.35	5
0	41088	11.35	3
0	41089	11.35	1
0	41090	11.35	1
0	41236	11.4	3
0	41237	11.4	5
0	41238	11.4	3
0	41239	11.4	5
0	41240	11.4	8
0	41241	11.4	5
0	41242	11.4	3
0	41243	11.4	5
0	41244	11.4	3
0	41245	11.4	1
0	41246	11.4	1
0	41247	11.4	3
0	41248	11.4	5
0	41249	11.4	3
0	41250	11.4	5
0	41251	11.4	8
0	41252	11.4	5
0	41253	11.4	3
0	41254	11.4	5
0	41255	11.4	3
0	41256	11.4	1
0	41257	11.4	1
0	41496	11.45	3
0	41497	11.45	5
0	41498	11.45	3
0	41499	11.45	5
0	41500	11.45	8
0	41501	11.45	5
0	41502	11.45	3
0	41503	11.45	5
0	41504	11.45	3
0	41505	11.45	1
0	41506	11.45	1
0	41671	11.5	3
0	41672	11.5	5
0	41673	11.5	3
0	41674	11.5	5
0	41675	11.5	8
0	41676	11.5	5
0	41677	11.5	3
0	41678	11.5	5
0	41679	11.5	3
0	41680	11.5	1
0	41681	11.5	1
0	41682	11.5	3
0	41683	11.5	5
0	41684	11.5	3
0	41685	11.5	5
0	41686	11.5	8
0	41687	11.5	5
0	41688	11.5	3
0	41689	11.5	5
0	41690	11.5	3
0	41691	11.5	1
0	41692	11.5	1
0	41925	11.55	3
0	41926	11.55	5
0	41927	11.55	3
0	41928	11.55	5
0	41929	11.55	8
0	41930	11.55	5
0	41931	11.55	3
0	41932	11.55	5
0	41933	11.55	3
0	41934	11.55	1
0	41935	11.55	1
0	42376	11.6	3
0	42377	11.6	5
0	42378	11.6	3
0	42379	11.6	5
0	42380	11.6	8
0	42381	11.6	5
0	42382	11.6	3
0	42383	11.6	5
0	42384	11.6	3
0	42385	11.6	1
0	42386	11.6	1
0	42387	11.6	3
0	42388	11.6	5
0	42389	11.6	3
0	42390	11.6	5
0	42391	11.6	8
0	42392	11.6	5
0	42393	11.6	3
0	42394	11.6	5
0	42395	11.6	3
0	42396	11.6	1
0	42397	11.6	1
0	42513	11.65	3
0	42514	11.65	5
0	42515	11.65	3
0	42516	11.65	5
0	42517	11.65	8
0	42518	11.65	5
0	42519	11.65	3
0	42520	11.65	5
0	42521	11.65	3
0	42522	11.65	1
0	42523	11.65	1
0	42635	11.7	3
0	42636	11.7	5
0	42637	11.7	3
0	42638	11.7	5
0	42639	11.7	8
0	42640	11.7	5
0	42641	11.7	3
0	42642	11.7	5
0	42643	11.7	3
0	42644	11.7	1
0	42645	11.7	1
0	42646	11.7	3
0	42647	11.7	5
0	42648	11.7	3
0	42649	11.7	5
0	42650	11.7	8
0	42651	11.7	5
0	42652	11.7	3
0	42653	11.7	5
0	42654	11.7	3
0	42655	11.7	1
0	42656	11.7	1
0	42813	11.75	3
0	42814	11.75	5
0	42815	11.75	3
0	42816	11.75	5
0	42817	11.75	8
0	42818	11.75	5
0	42819	11.75	3
0	42820	11.75	5
0	42821	11.75	3
0	42822	11.75	1
0	42823	11.75	1
0	42912	11.8	3
0	42913	11.8	5
0	42914	11.8	3
0	42915	11.8	5
0	42916	11.8	8
0	42917	11.8	5
0	42918	11.8	3
0	42919	11.8	5
0	42920	11.8	3
0	42921	11.8	1
0	42922	11.8	1
0	42923	11.8	3
0	42924	11.8	5
0	42925	11.8	3
0	42926	11.8	5
0	42927	11.8	8
0	42928	11.8	5
0	42929	11.8	3
0	42930	11.8	5
0	42931	11.8	3
0	42932	11.8	1
0	42933	11.8	1
0	43044	11.85	3
0	43045	11.85	5
0	43046	11.85	3
0	43047	11.85	5
0	43048	11.85	8
0	43049	11.85	5
0	43050	11.85	3
0	43051	11.85	5
0	43052	11.85	3
0	43053	11.85	1
0	43054	11.85	1
0	43143	11.9	3
0	43144	11.9	5
0	43145	11.9	3
0	43146	11.9	5
0	43147	11.9	8
0	43148	11.9	5
0	43149	11.9	3
0	43150	11.9	5
0	43151	11.9	3
0	43152	11.9	1
0	43153	11.9	1
0	43154	11.9	3
0	43155	11.9	5
0	43156	11.9	3
0	43157	11.9	5
0	43158	11.9	8
0	43159	11.9	5
0	43160	11.9	3
0	43161	11.9	5
0	43162	11.9	3
0	43163	11.9	1
0	43164	11.9	1
0	43344	11.95	3
0	43345	11.95	5
0	43346	11.95	3
0	43347	11.95	5
0	43348	11.95	8
0	43349	11.95	5
0	43350	11.95	3
0	43351	11.95	5
0	43352	11.95	3
0	43353	11.95	1
0	43354	11.95	1
0	43521	12	3
0	43522	12	5
0	43523	12	3
0	43524	12	5
0	43525	12	8
0	43526	12	5
0	43527	12	3
0	43528	12	5
0	43529	12	3
0	43530	12	1
0	43531	12	1
0	43532	12	3
0	43533	12	5
0	43534	12	3
0	43535	12	5
0	43536	12	8
0	43537	12	5
0	43538	12	3
0	43539	12	5
0	43540	12	3
0	43541	12	1
0	43542	12	1
0	43653	12.05	3
0	43654	12.05	5
0	43655	12.05	3
0	43656	12.05	5
0	43657	12.05	8
0	43658	12.05	5
0	43659	12.05	3
0	43660	12.05	5
0	43661	12.05	3
0	43662	12.05	1
0	43663	12.05	1
0	43869	12.1	3
0	43870	12.1	5
0	43871	12.1	3
0	43872	12.1	5
0	43873	12.1	8
0	43874	12.1	5
0	43875	12.1	3
0	43876	12.1	5
0	43877	12.1	3
0	43878	12.1	1
0	43879	12.1	1
0	43880	12.1	3
0	43881	12.1	5
0	43882	12.1	3
0	43883	12.1	5
0	43884	12.1	8
0	43885	12.1	5
0	43886	12.1	3
0	43887	12.1	5
0	43888	12.1	3
0	43889	12.1	1
0	43890	12.1	1
0	44310	12.15	3
0	44311	12.15	5
0	44312	12.15	3
0	44313	12.15	5
0	44314	12.15	8
0	44315	12.15	5
0	44316	12.15	3
0	44317	12.15	5
0	44318	12.15	3
0	44319	12.15	1
0	44320	12.15	1
0	44549	12.2	3
0	44550	12.2	5
0	44551	12.2	3
0	44552	12.2	5
0	44553	12.2	8
0	44554	12.2	5
0	44555	12.2	3
0	44556	12.2	5
0	44557	12.2	3
0	44558	12.2	1
0	44559	12.2	1
0	44560	12.2	3
0	44561	12.2	5
0	44562	12.2	3
0	44563	12.2	5
0	44564	12.2	8
0	44565	12.2	5
0	44566	12.2	3
0	44567	12.2	5
0	44568	12.2	3
0	44569	12.2	1
0	44570	12.2	1
0	44841	12.25	3
0	44842	12.25	5
0	44843	12.25	3
0	44844	12.25	5
0	44845	12.25	8
0	44846	12.25	5
0	44847	12.25	3
0	44848	12.25	5
0	44849	12.25	3
0	44850	12.25	1
0	44851	12.25	1
0	45071	12.3	3
0	45072	12.3	5
0	45073	12.3	3
0	45074	12.3	5
0	45075	12.3	8
0	45076	12.3	5
0	45077	12.3	3
0	45078	12.3	5
0	45079	12.3	3
0	45080	12.3	1
0	45081	12.3	1
0	45082	12.3	3
0	45083	12.3	5
0	45084	12.3	3
0	45085	12.3	5
0	45086	12.3	8
0	45087	12.3	5
0	45088	12.3	3
0	45089	12.3	5
0	45090	12.3	3
0	45091	12.3	1
0	45092	12.3	1
0	45295	12.35	3
0	45296	12.35	5
0	45297	12.35	3
0	45298	12.35	5
0	45299	12.35	8
0	45300	12.35	5
0	45301	12.35	3
0	45302	12.35	5
0	45303	12.35	3
0	45304	12.35	1
0	45305	12.35	1
0	45420	12.4	3
0	45421	12.4	5
0	45422	12.4	3
0	45423	12.4	5
0	45424	12.4	8
0	45425	12.4	5
0	45426	12.4	3
0	45427	12.4	5
0	45428	12.4	3
0	45429	12.4	1
0	45430	12.4	1
0	45431	12.4	3
0	45432	12.4	5
0	45433	12.4	3
0	45434	12.4	5
0	45435	12.4	8
0	45436	12.4	5
0	45437	12.4	3
0	45438	12.4	5
0	45439	12.4	3
0	45440	12.4	1
0	45441	12.4	1
0	45552	12.45	3
0	45553	12.45	5
0	45554	12.45	3
0	45555	12.45	5
0	45556	12.45	8
0	45557	12.45	5
0	45558	12.45	3
0	45559	12.45	5
0	45560	12.45	3
0	45561	12.45	1
0	45562	12.45	1
0	45714	12.5	3
0	45715	12.5	5
0	45716	12.5	3
0	45717	12.5	5
0	45718	12.5	8
0	45719	12.5	5
0	45720	12.5	3
0	45721	12.5	5
0	45722	12.5	3
0	45723	12.5	1
0	45724	12.5	1
0	45725	12.5	3
0	45726	12.5	5
0	45727	12.5	3
0	45728	12.5	5
0	45729	12.5	8
0	45730	12.5	5
0	45731	12.5	3
0	45732	12.5	5
0	45733	12.5	3
0	45734	12.5	1
0	45735	12.5	1
0	45897	12.55	3
0	45898	12.55	5
0	45899	12.55	3
0	45900	12.55	5
0	45901	12.55	8
0	45902	12.55	5
0	45903	12.55	3
0	45904	12.55	5
0	45905	12.55	3
0	45906	12.55	1
0	45907	12.55	1
0	46019	12.6	3
0	46020	12.6	5
0	46021	12.6	3
0	46022	12.6	5
0	46023	12.6	8
0	46024	12.6	5
0	46025	12.6	3
0	46026	12.6	5
0	46027	12.6	3
0	46028	12.6	1
0	46029	12.6	1
0	46030	12.6	3
0	46031	12.6	5
0	46032	12.6	3
0	46033	12.6	5
0	46034	12.6	8
0	46035	12.6	5
0	46036	12.6	3
0	46037	12.6	5
0	46038	12.6	3
0	46039	12.6	1
0	46040	12.6	1
0	46273	12.65	3
0	46274	12.65	5
0	46275	12.65	3
0	46276	12.65	5
0	46277	12.65	8
0	46278	12.65	5
0	46279	12.65	3
0	46280	12.65	5
0	46281	12.65	3
0	46282	12.65	1
0	46283	12.65	1
0	46674	12.7	3
0	46675	12.7	5
0	46676	12.7	3
0	46677	12.7	5
0	46678	12.7	8
0	46679	12.7	5
0	46680	12.7	3
0	46681	12.7	5
0	46682	12.7	3
0	46683	12.7	1
0	46684	12.7	1
0	46685	12.7	3
0	46686	12.7	5
0	46687	12.7	3
0	46688	12.7	5
0	46689	12.7	8
0	46690	12.7	5
0	46691	12.7	3
0	46692	12.7	5
0	46693	12.7	3
0	46694	12.7	1
0	46695	12.7	1
0	46951	12.75	3
0	46952	12.75	5
0	46953	12.75	3
0	46954	12.75	5
0	46955	12.75	8
0	46956	12.75	5
0	46957	12.75	3
0	46958	12.75	5
0	46959	12.75	3
0	46960	12.75	1
0	46961	12.75	1
0	47161	12.8	3
0	47162	12.8	5
0	47163	12.8	3
0	47164	12.8	5
0	47165	12.8	8
0	47166	12.8	5
0	47167	12.8	3
0	47168	12.8	5
0	47169	12.8	3
0	47170	12.8	1
0	47171	12.8	1
0	47172	12.8	3
0	47173	12.8	5
0	47174	12.8	3
0	47175	12.8	5
0	47176	12.8	8
0	47177	12.8	5
0	47178	12.8	3
0	47179	12.8	5
0	47180	12.8	3
0	47181	12.8	1
0	47182	12.8	1
0	47440	12.85	3
0	47441	12.85	5
0	47442	12.85	3
0	47443	12.85	5
0	47444	12.85	8
0	47445	12.85	5
0	47446	12.85	3
0	47447	12.85	5
0	47448	12.85	3
0	47449	12.85	1
0	47450	12.85	1
0	47604	12.9	3
0	47605	12.9	5
0	47606	12.9	3
0	47607	12.9	5
0	47608	12.9	8
0	47609	12.9	5
0	47610	12.9	3
0	47611	12.9	5
0	47612	12.9	3
0	47613	12.9	1
0	47614	12.9	1
0	47615	12.9	3
0	47616	12.9	5
0	47617	12.9	3
0	47618	12.9	5
0	47619	12.9	8
0	47620	12.9	5
0	47621	12.9	3
0	47622	12.9	5
0	47623	12.9	3
0	47624	12.9	1
0	47625	12.9	1
0	47820	12.95	3
0	47821	12.95	5
0	47822	12.95	3
0	47823	12.95	5
0	47824	12.95	8
0	47825	12.95	5
0	47826	12.95	3
0	47827	12.95	5
0	47828	12.95	3
0	47829	12.95	1
0	47830	12.95	1
0	47944	13	3
0	47945	13	5
0	47946	13	3
0	47947	13	5
0	47948	13	8
0	47949	13	5
0	47950	13	3
0	47951	13	5
0	47952	13	3
0	47953	13	1
0	47954	13	1
0	47955	13	3
0	47956	13	5
0	47957	13	3
0	47958	13	5
0	47959	13	8
0	47960	13	5
0	47961	13	3
0	47962	13	5
0	47963	13	3
0	47964	13	1
0	47965	13	1
0	48150	13.05	3
0	48151	13.05	5
0	48152	13.05	3
0	48153	13.05	5
0	48154	13.05	8
0	48155	13.05	5
0	48156	13.05	3
0	48157	13.05	5
0	48158	13.05	3
0	48159	13.05	1
0	48160	13.05	1
0	48327	13.1	3
0	48328	13.1	5
0	48329	13.1	3
0	48330	13.1	5
0	48331	13.1	8
0	48332	13.1	5
0	48333	13.1	3
0	48334	13.1	5
0	48335	13.1	3
0	48336	13.1	1
0	48337	13.1	1
0	48338	13.1	3
0	48339	13.1	5
0	48340	13.1	3
0	48341	13.1	5
0	48342	13.1	8
0	48343	13.1	5
0	48344	13.1	3
0	48345	13.1	5
0	48346	13.1	3
0	48347	13.1	1
0	48348	13.1	1
0	48495	13.15	3
0	48496	13.15	5
0	48497	13.15	3
0	48498	13.15	5
0	48499	13.15	8
0	48500	13.15	5
0	48501	13.15	3
0	48502	13.15	5
0	48503	13.15	3
0	48504	13.15	1
0	48505	13.15	1
0	48678	13.2	3
0	48679	13.2	5
0	48680	13.2	3
0	48681	13.2	5
0	48682	13.2	8
0	48683	13.2	5
0	48684	13.2	3
0	48685	13.2	5
0	48686	13.2	3
0	48687	13.2	1
0	48688	13.2	1
0	48689	13.2	3
0	48690	13.2	5
0	48691	13.2	3
0	48692	13.2	5
0	48693	13.2	8
0	48694	13.2	5
0	48695	13.2	3
0	48696	13.2	5
0	48697	13.2	3
0	48698	13.2	1
0	48699	13.2	1
0	49090	13.25	3
0	49091	13.25	5
0	49092	13.25	3
0	49093	13.25	5
0	49094	13.25	8
0	49095	13.25	5
0	49096	13.25	3
0	49097	13.25	5
0	49098	13.25	3
0	49099	13.25	1
0	49100	13.25	1
0	49300	13.3	3
0	49301	13.3	5
0	49302	13.3	3
0	49303	13.3	5
0	49304	13.3	8
0	49305	13.3	5
0	49306	13.3	3
0	49307	13.3	5
0	49308	13.3	3
0	49309	13.3	1
0	49310	13.3	1
0	49311	13.3	3
0	49312	13.3	5
0	49313	13.3	3
0	49314	13.3	5
0	49315	13.3	8
0	49316	13.3	5
0	49317	13.3	3
0	49318	13.3	5
0	49319	13.3	3
0	49320	13.3	1
0	49321	13.3	1
0	49483	13.35	3
0	49484	13.35	5
0	49485	13.35	3
0	49486	13.35	5
0	49487	13.35	8
0	49488	13.35	5
0	49489	13.35	3
0	49490	13.35	5
0	49491	13.35	3
0	49492	13.35	1
0	49493	13.35	1
0	49677	13.4	3
0	49678	13.4	5
0	49679	13.4	3
0	49680	13.4	5
0	49681	13.4	8
0	49682	13.4	5
0	49683	13.4	3
0	49684	13.4	5
0	49685	13.4	3
0	49686	13.4	1
0	49687	13.4	1
0	49688	13.4	3
0	49689	13.4	5
0	49690	13.4	3
0	49691	13.4	5
0	49692	13.4	8
0	49693	13.4	5
0	49694	13.4	3
0	49695	13.4	5
0	49696	13.4	3
0	49697	13.4	1
0	49698	13.4	1
0	49814	13.45	3
0	49815	13.45	5
0	49816	13.45	3
0	49817	13.45	5
0	49818	13.45	8
0	49819	13.45	5
0	49820	13.45	3
0	49821	13.45	5
0	49822	13.45	3
0	49823	13.45	1
0	49824	13.45	1
0	49957	13.5	3
0	49958	13.5	5
0	49959	13.5	3
0	49960	13.5	5
0	49961	13.5	8
0	49962	13.5	5
0	49963	13.5	3
0	49964	13.5	5
0	49965	13.5	3
0	49966	13.5	1
0	49967	13.5	1
0	49968	13.5	3
0	49969	13.5	5
0	49970	13.5	3
0	49971	13.5	5
0	49972	13.5	8
0	49973	13.5	5
0	49974	13.5	3
0	49975	13.5	5
0	49976	13.5	3
0	49977	13.5	1
0	49978	13.5	1
0	50089	13.55	3
0	50090	13.55	5
0	50091	13.55	3
0	50092	13.55	5
0	50093	13.55	8
0	50094	13.55	5
0	50095	13.55	3
0	50096	13.55	5
0	50097	13.55	3
0	50098	13.55	1
0	50099	13.55	1
0	50233	13.6	3
0	50234	13.6	5
0	50235	13.6	3
0	50236	13.6	5
0	50237	13.6	8
0	50238	13.6	5
0	50239	13.6	3
0	50240	13.6	5
0	50241	13.6	3
0	50242	13.6	1
0	50243	13.6	1
0	50244	13.6	3
0	50245	13.6	5
0	50246	13.6	3
0	50247	13.6	5
0	50248	13.6	8
0	50249	13.6	5
0	50250	13.6	3
0	50251	13.6	5
0	50252	13.6	3
0	50253	13.6	1
0	50254	13.6	1
0	50365	13.65	3
0	50366	13.65	5
0	50367	13.65	3
0	50368	13.65	5
0	50369	13.65	8
0	50370	13.65	5
0	50371	13.65	3
0	50372	13.65	5
0	50373	13.65	3
0	50374	13.65	1
0	50375	13.65	1
0	50487	13.7	3
0	50488	13.7	5
0	50489	13.7	3
0	50490	13.7	5
0	50491	13.7	8
0	50492	13.7	5
0	50493	13.7	3
0	50494	13.7	5
0	50495	13.7	3
0	50496	13.7	1
0	50497	13.7	1
0	50498	13.7	3
0	50499	13.7	5
0	50500	13.7	3
0	50501	13.7	5
0	50502	13.7	8
0	50503	13.7	5
0	50504	13.7	3
0	50505	13.7	5
0	50506	13.7	3
0	50507	13.7	1
0	50508	13.7	1
0	50712	13.75	3
0	50713	13.75	5
0	50714	13.75	3
0	50715	13.75	5
0	50716	13.75	8
0	50717	13.75	5
0	50718	13.75	3
0	50719	13.75	5
0	50720	13.75	3
0	50721	13.75	1
0	50722	13.75	1
0	51031	13.8	3
0	51032	13.8	5
0	51033	13.8	3
0	51034	13.8	5
0	51035	13.8	8
0	51036	13.8	5
0	51037	13.8	3
0	51038	13.8	5
0	51039	13.8	3
0	51040	13.8	1
0	51041	13.8	1
0	51042	13.8	3
0	51043	13.8	5
0	51044	13.8	3
0	51045	13.8	5
0	51046	13.8	8
0	51047	13.8	5
0	51048	13.8	3
0	51049	13.8	5
0	51050	13.8	3
0	51051	13.8	1
0	51052	13.8	1
0	51186	13.85	3
0	51187	13.85	5
0	51188	13.85	3
0	51189	13.85	5
0	51190	13.85	8
0	51191	13.85	5
0	51192	13.85	3
0	51193	13.85	5
0	51194	13.85	3
0	51195	13.85	1
0	51196	13.85	1
0	51354	13.9	3
0	51355	13.9	5
0	51356	13.9	3
0	51357	13.9	5
0	51358	13.9	8
0	51359	13.9	5
0	51360	13.9	3
0	51361	13.9	5
0	51362	13.9	3
0	51363	13.9	1
0	51364	13.9	1
0	51365	13.9	3
0	51366	13.9	5
0	51367	13.9	3
0	51368	13.9	5
0	51369	13.9	8
0	51370	13.9	5
0	51371	13.9	3
0	51372	13.9	5
0	51373	13.9	3
0	51374	13.9	1
0	51375	13.9	1
0	51549	13.95	3
0	51550	13.95	5
0	51551	13.95	3
0	51552	13.95	5
0	51553	13.95	8
0	51554	13.95	5
0	51555	13.95	3
0	51556	13.95	5
0	51557	13.95	3
0	51558	13.95	1
0	51559	13.95	1
0	51653	14	3
0	51654	14	5
0	51655	14	3
0	51656	14	5
0	51657	14	8
0	51658	14	5
0	51659	14	3
0	51660	14	5
0	51661	14	3
0	51662	14	1
0	51663	14	1
0	51664	14	3
0	51665	14	5
0	51666	14	3
0	51667	14	5
0	51668	14	8
0	51669	14	5
0	51670	14	3
0	51671	14	5
0	51672	14	3
0	51673	14	1
0	51674	14	1
0	51808	14.05	3
0	51809	14.05	5
0	51810	14.05	3
0	51811	14.05	5
0	51812	14.05	8
0	51813	14.05	5
0	51814	14.05	3
0	51815	14.05	5
0	51816	14.05	3
0	51817	14.05	1
0	51818	14.05	1
0	51918	14.1	3
0	51919	14.1	5
0	51920	14.1	3
0	51921	14.1	5
0	51922	14.1	8
0	51923	14.1	5
0	51924	14.1	3
0	51925	14.1	5
0	51926	14.1	3
0	51927	14.1	1
0	51928	14.1	1
0	51929	14.1	3
0	51930	14.1	5
0	51931	14.1	3
0	51932	14.1	5
0	51933	14.1	8
0	51934	14.1	5
0	51935	14.1	3
0	51936	14.1	5
0	51937	14.1	3
0	51938	14.1	1
0	51939	14.1	1
0	52073	14.15	3
0	52074	14.15	5
0	52075	14.15	3
0	52076	14.15	5
0	52077	14.15	8
0	52078	14.15	5
0	52079	14.15	3
0	52080	14.15	5
0	52081	14.15	3
0	52082	14.15	1
0	52083	14.15	1
0	52172	14.2	3
0	52173	14.2	5
0	52174	14.2	3
0	52175	14.2	5
0	52176	14.2	8
0	52177	14.2	5
0	52178	14.2	3
0	52179	14.2	5
0	52180	14.2	3
0	52181	14.2	1
0	52182	14.2	1
0	52183	14.2	3
0	52184	14.2	5
0	52185	14.2	3
0	52186	14.2	5
0	52187	14.2	8
0	52188	14.2	5
0	52189	14.2	3
0	52190	14.2	5
0	52191	14.2	3
0	52192	14.2	1
0	52193	14.2	1
0	52327	14.25	3
0	52328	14.25	5
0	52329	14.25	3
0	52330	14.25	5
0	52331	14.25	8
0	52332	14.25	5
0	52333	14.25	3
0	52334	14.25	5
0	52335	14.25	3
0	52336	14.25	1
0	52337	14.25	1
0	52493	14.3	3
0	52494	14.3	5
0	52495	14.3	3
0	52496	14.3	5
0	52497	14.3	8
0	52498	14.3	5
0	52499	14.3	3
0	52500	14.3	5
0	52501	14.3	3
0	52502	14.3	1
0	52503	14.3	1
0	52504	14.3	3
0	52505	14.3	5
0	52506	14.3	3
0	52507	14.3	5
0	52508	14.3	8
0	52509	14.3	5
0	52510	14.3	3
0	52511	14.3	5
0	52512	14.3	3
0	52513	14.3	1
0	52514	14.3	1
0	52853	14.35	3
0	52854	14.35	5
0	52855	14.35	3
0	52856	14.35	5
0	52857	14.35	8
0	52858	14.35	5
0	52859	14.35	3
0	52860	14.35	5
0	52861	14.35	3
0	52862	14.35	1
0	52863	14.35	1
0	52998	14.4	3
0	52999	14.4	5
0	53000	14.4	3
0	53001	14.4	5
0	53002	14.4	8
0	53003	14.4	5
0	53004	14.4	3
0	53005	14.4	5
0	53006	14.4	3
0	53007	14.4	1
0	53008	14.4	1
0	53009	14.4	3
0	53010	14.4	5
0	53011	14.4	3
0	53012	14.4	5
0	53013	14.4	8
0	53014	14.4	5
0	53015	14.4	3
0	53016	14.4	5
0	53017	14.4	3
0	53018	14.4	1
0	53019	14.4	1
0	53199	14.45	3
0	53200	14.45	5
0	53201	14.45	3
0	53202	14.45	5
0	53203	14.45	8
0	53204	14.45	5
0	53205	14.45	3
0	53206	14.45	5
0	53207	14.45	3
0	53208	14.45	1
0	53209	14.45	1
0	53388	14.5	3
0	53389	14.5	5
0	53390	14.5	3
0	53391	14.5	5
0	53392	14.5	8
0	53393	14.5	5
0	53394	14.5	3
0	53395	14.5	5
0	53396	14.5	3
0	53397	14.5	1
0	53398	14.5	1
0	53399	14.5	3
0	53400	14.5	5
0	53401	14.5	3
0	53402	14.5	5
0	53403	14.5	8
0	53404	14.5	5
0	53405	14.5	3
0	53406	14.5	5
0	53407	14.5	3
0	53408	14.5	1
0	53409	14.5	1
0	53543	14.55	3
0	53544	14.55	5
0	53545	14.55	3
0	53546	14.55	5
0	53547	14.55	8
0	53548	14.55	5
0	53549	14.55	3
0	53550	14.55	5
0	53551	14.55	3
0	53552	14.55	1
0	53553	14.55	1
0	53709	14.6	3
0	53710	14.6	5
0	53711	14.6	3
0	53712	14.6	5
0	53713	14.6	8
0	53714	14.6	5
0	53715	14.6	3
0	53716	14.6	5
0	53717	14.6	3
0	53718	14.6	1
0	53719	14.6	1
0	53720	14.6	3
0	53721	14.6	5
0	53722	14.6	3
0	53723	14.6	5
0	53724	14.6	8
0	53725	14.6	5
0	53726	14.6	3
0	53727	14.6	5
0	53728	14.6	3
0	53729	14.6	1
0	53730	14.6	1
0	53881	14.65	3
0	53882	14.65	5
0	53883	14.65	3
0	53884	14.65	5
0	53885	14.65	8
0	53886	14.65	5
0	53887	14.65	3
0	53888	14.65	5
0	53889	14.65	3
0	53890	14.65	1
0	53891	14.65	1
0	54049	14.7	3
0	54050	14.7	5
0	54051	14.7	3
0	54052	14.7	5
0	54053	14.7	8
0	54054	14.7	5
0	54055	14.7	3
0	54056	14.7	5
0	54057	14.7	3
0	54058	14.7	1
0	54059	14.7	1
0	54060	14.7	3
0	54061	14.7	5
0	54062	14.7	3
0	54063	14.7	5
0	54064	14.7	8
0	54065	14.7	5
0	54066	14.7	3
0	54067	14.7	5
0	54068	14.7	3
0	54069	14.7	1
0	54070	14.7	1
0	54223	14.75	3
0	54224	14.75	5
0	54225	14.75	3
0	54226	14.75	5
0	54227	14.75	8
0	54228	14.75	5
0	54229	14.75	3
0	54230	14.75	5
0	54231	14.75	3
0	54232	14.75	1
0	54233	14.75	1
0	54412	14.8	3
0	54413	14.8	5
0	54414	14.8	3
0	54415	14.8	5
0	54416	14.8	8
0	54417	14.8	5
0	54418	14.8	3
0	54419	14.8	5
0	54420	14.8	3
0	54421	14.8	1
0	54422	14.8	1
0	54423	14.8	3
0	54424	14.8	5
0	54425	14.8	3
0	54426	14.8	5
0	54427	14.8	8
0	54428	14.8	5
0	54429	14.8	3
0	54430	14.8	5
0	54431	14.8	3
0	54432	14.8	1
0	54433	14.8	1
0	54672	14.85	3
0	54673	14.85	5
0	54674	14.85	3
0	54675	14.85	5
0	54676	14.85	8
0	54677	14.85	5
0	54678	14.85	3
0	54679	14.85	5
0	54680	14.85	3
0	54681	14.85	1
0	54682	14.85	1
0	55001	14.9	3
0	55002	14.9	5
0	55003	14.9	3
0	55004	14.9	5
0	55005	14.9	8
0	55006	14.9	5
0	55007	14.9	3
0	55008	14.9	5
0	55009	14.9	3
0	55010	14.9	1
0	55011	14.9	1
0	55012	14.9	3
0	55013	14.9	5
0	55014	14.9	3
0	55015	14.9	5
0	55016	14.9	8
0	55017	14.9	5
0	55018	14.9	3
0	55019	14.9	5
0	55020	14.9	3
0	55021	14.9	1
0	55022	14.9	1
0	55178	14.95	3
0	55179	14.95	5
0	55180	14.95	3
0	55181	14.95	5
0	55182	14.95	8
[...]
3	215408	57.457566529761	90663
3	215463	57.471406529761	90804
3	215491	57.483626728067	90945
3	215706	57.526766529761	91086
3	215725	57.533626728067	91227
3	215742	57.547466728067	91368
3	215864	57.554446529761	91509
3	215875	57.561306728067	91650
3	215913	57.568286529761	91791
3	215958	57.575146728067	91932
3	215977	57.582126529761	92073
3	215996	57.588986728067	92214
3	216240	57.643952534095	92355
3	217220	57.893726529761	92496
3	217373	57.907566529761	92637
3	217408	57.921406529761	92778
3	217427	57.935246529761	92919
3	217446	57.949086529761	93060
3	217690	57.993726529761	93201
3	217855	58.007566529761	93342
3	217922	58.021406529761	93483
3	217953	58.049086529761	93624
3	218075	58.062926529761	93765
3	218136	58.087679063856	93906
3	218155	58.090606529761	94047
3	218744	58.233626728067	94188
3	219180	58.33342031478	94329
3	219637	58.443726529761	94470
3	219752	58.457566529761	94611
3	219797	58.483626728067	94752
3	220213	58.583626728067	94893
3	220413	58.633626728067	95034
3	220432	58.647466728067	95175
3	222255	59.133626728067	95316
3	222908	59.333626728067	95457
3	223292	59.43342031478	95598
3	223808	59.583626728067	95739
3	223810	59.583626728067	95880
3	225681	60.088266728067	96021
3	225861	60.102106728067	96162
3	225898	60.115946728067	96303
3	225956	60.133626728067	96444
3	225958	60.133626728067	96585
3	225987	60.147466728067	96726
3	226112	60.161306728067	96867
3	226424	60.233626728067	97008
3	227100	60.433626728067	97149
3	227494	60.53342031478	97290
3	227522	60.548224192201	97431
3	227646	60.562064192201	97572
3	227668	60.575904192201	97713
3	227690	60.589744192201	97854
3	227961	60.638266728067	97995
3	228103	60.683626728067	98136
3	229749	61.188266728067	98277
3	229924	61.233626728067	98418
3	230236	61.333626728067	98559
3	230893	61.533626728067	98700
3	231309	61.63342031478	98841
3	231337	61.648224192201	98982
3	231797	61.738360723733	99123
3	231816	61.743584192201	99264
3	232127	61.821400723733	99405
3	232146	61.835240723733	99546
3	232165	61.849080723733	99687
3	232291	61.862920723733	99828
3	232352	61.876760723733	99969
3	232371	61.890600723733	100110
3	232723	61.94876899642	100251
3	232841	61.96260899642	100392
3	232855	61.97644899642	100533
3	232874	61.99028899642	100674
3	233039	62.00412899642	100815
3	233083	62.01796899642	100956
3	233111	62.03180899642	101097
3	233130	62.04564899642	101238
3	233767	62.18342031478	101379
3	233778	62.183626728067	101520
3	233805	62.197466728067	101661
3	234231	62.288266728067	101802
3	234238	62.288360723733	101943
3	234266	62.293584192201	102084
3	234422	62.302200723733	102225
3	234448	62.316040723733	102366
3	234481	62.329880723733	102507
3	234500	62.336032534095	102648
3	234864	62.433626728067	102789
3	235917	62.733626728067	102930
3	237260	63.133626728067	103071
3	237279	63.147466728067	103212
3	237832	63.28342031478	103353
3	238253	63.393584192201	103494
3	238468	63.433626728067	103635
3	238808	63.533626728067	103776
3	239895	63.888266728067	103917
3	241183	64.233626728067	104058
3	241694	64.38342031478	104199
3	241910	64.438266728067	104340
3	242142	64.483626728067	104481
3	243438	64.883626728067	104622
3	243609	64.911306728067	104763
3	244161	65.043584192201	104904
3	244526	65.133730596859	105045
3	244553	65.147570596859	105186
3	245241	65.333626728067	105327
3	245603	65.433626728067	105468
3	245631	65.447466728067	105609
3	245755	65.461306728067	105750
3	245839	65.48342031478	105891
3	246066	65.548426728067	106032
3	246284	65.583626728067	106173
3	246303	65.593584192201	106314
3	246666	65.68396899642	106455
3	246685	65.69780899642	106596
3	246842	65.71164899642	106737
3	246918	65.72548899642	106878
3	247070	65.78084899642	107019
3	247089	65.79468899642	107160
3	247243	65.80852899642	107301
3	248367	66.133626728067	107442
3	248719	66.233626728067	107583
3	248729	66.23396899642	107724
3	248757	66.24780899642	107865
3	248876	66.26164899642	108006
3	248953	66.27548899642	108147
3	248972	66.28932899642	108288
3	249127	66.30316899642	108429
3	249878	66.548224192201	108570
3	250002	66.562064192201	108711
3	250089	66.58342031478	108852
3	250288	66.638266728067	108993
3	250870	66.78396899642	109134
3	251105	66.82548899642	109275
3	252267	67.13342031478	109416
3	252733	67.233626728067	109557
3	252758	67.238266728067	109698
3	252760	67.238266728067	109839
3	252900	67.252106728067	109980
3	252902	67.252106728067	110121
3	253211	67.333626728067	110262
3	253221	67.33396899642	110403
3	253249	67.34780899642	110544
3	253373	67.36164899642	110685
3	254442	67.633626728067	110826
3	254461	67.638456785734	110967
3	254480	67.647466728067	111108
3	254604	67.652296785734	111249
3	254623	67.661306728067	111390
3	254675	67.666136785734	111531
3	254712	67.679976785734	111672
3	254731	67.693816785734	111813
3	254885	67.707656785734	111954
3	254944	67.721496785734	112095
3	254984	67.735336785734	112236
3	255115	67.763016785734	112377
3	255201	67.776856785734	112518
3	255383	67.804536785734	112659
3	255485	67.842362790068	112800
3	255684	67.883626728067	112941
3	256789	68.183626728067	113082
3	256988	68.23342031478	113223
3	257208	68.288266728067	113364
3	257486	68.338266728067	113505
3	257504	68.348272534095	113646
3	257865	68.433626728067	113787
3	257881	68.44780899642	113928
3	258801	68.733626728067	114069
3	259205	68.833626728067	114210
3	259723	68.98396899642	114351
3	259746	68.99780899642	114492
3	260659	69.283626728067	114633
3	260858	69.33342031478	114774
3	261051	69.383626728067	114915
3	261053	69.383626728067	115056
3	261288	69.433626728067	115197
3	262991	69.943584192201	115338
3	264486	70.397466728067	115479
3	264731	70.43342031478	115620
3	264975	70.483626728067	115761
3	265003	70.493584192201	115902
3	265388	70.583626728067	116043
3	265406	70.597466728067	116184
3	266483	70.88396899642	116325
3	266502	70.89780899642	116466
3	266659	70.91164899642	116607
3	266727	70.936401530515	116748
3	266746	70.93932899642	116889
3	266874	70.950241530515	117030
3	266893	70.95316899642	117171
3	266958	70.96700899642	117312
3	266999	70.98084899642	117453
3	267018	70.99468899642	117594
3	267186	71.00852899642	117735
3	267292	71.02236899642	117876
3	267475	71.060195000754	118017
3	267558	71.083626728067	118158
3	268962	71.483626728067	118299
3	269189	71.53342031478	118440
3	269448	71.583626728067	118581
3	269450	71.583626728067	118722
3	269488	71.593584192201	118863
3	269703	71.633626728067	119004
3	269869	71.683626728067	119145
3	270941	71.98396899642	119286
3	270960	71.99780899642	119427
3	271123	72.01164899642	119568
3	271173	72.02548899642	119709
3	271302	72.05316899642	119850
3	271697	72.133626728067	119991
3	271699	72.133626728067	120132
3	271879	72.183626728067	120273
3	272087	72.233626728067	120414
3	272954	72.48396899642	120555
3	272973	72.49780899642	120696
3	273128	72.51164899642	120837
3	273184	72.52548899642	120978
3	273203	72.53932899642	121119
3	273371	72.56700899642	121260
3	273421	72.58084899642	121401
3	273440	72.583730596859	121542
3	273691	72.63342031478	121683
3	273926	72.693584192201	121824
3	275439	73.133626728067	121965
3	275458	73.147466728067	122106
3	275584	73.161306728067	122247
3	275671	73.18342031478	122388
3	275940	73.233626728067	122529
3	275942	73.233626728067	122670
3	275980	73.243584192201	122811
3	276314	73.333626728067	122952
3	277437	73.683626728067	123093
3	277924	73.788266728067	123234
3	279133	74.13396899642	123375
3	279349	74.17548899642	123516
3	279368	74.18932899642	123657
3	279521	74.20316899642	123798
3	279566	74.233626728067	123939
3	279778	74.28342031478	124080
3	280049	74.333626728067	124221
3	280091	74.338266728067	124362
3	280110	74.348272534095	124503
3	280444	74.433626728067	124644
3	281172	74.64780899642	124785
3	281322	74.67548899642	124926
3	281341	74.68396899642	125067
3	281360	74.68932899642	125208
3	281522	74.70316899642	125349
3	281541	74.71164899642	125490
3	281596	74.71700899642	125631
3	281799	74.783626728067	125772
3	283344	75.19780899642	125913
3	283497	75.21164899642	126054
3	283519	75.22548899642	126195
3	283914	75.333626728067	126336
3	284117	75.38342031478	126477
3	284377	75.433626728067	126618
3	284527	75.458384192201	126759
3	284785	75.533626728067	126900
3	285327	75.688266728067	127041
3	285481	75.702106728067	127182
3	285540	75.73396899642	127323
3	285559	75.74780899642	127464
3	286041	75.883626728067	127605
3	286632	76.008384192201	127746
3	287529	76.252106728067	127887
3	287570	76.28396899642	128028
3	288071	76.433626728067	128169
3	288277	76.48342031478	128310
3	288525	76.543584192201	128451
3	288889	76.633626728067	128592
3	289422	76.788266728067	128733
3	290793	77.183626728067	128874
3	291390	77.338266728067	129015
3	292238	77.58342031478	129156
3	292249	77.583626728067	129297
3	292285	77.597466728067	129438
3	292442	77.611306728067	129579
3	293418	77.888266728067	129720
3	294313	78.13342031478	129861
3	294324	78.133626728067	130002
3	294560	78.193584192201	130143
3	295212	78.343584192201	130284
3	295332	78.357424192201	130425
3	295351	78.371264192201	130566
3	295370	78.385104192201	130707
3	295389	78.398944192201	130848
3	295701	78.438266728067	130989
3	295714	78.443584192201	131130
3	295836	78.457424192201	131271
3	295861	78.471264192201	131412
3	296710	78.743584192201	131553
3	297088	78.833626728067	131694
3	297639	78.988266728067	131835
3	297657	78.993726529761	131976
3	297824	79.035246529761	132117
3	297843	79.049086529761	132258
3	298605	79.23342031478	132399
3	298616	79.233626728067	132540
3	298822	79.293584192201	132681
3	299756	79.538266728067	132822
3	299777	79.543584192201	132963
3	299921	79.571406529761	133104
3	301322	79.948272534095	133245
3	301329	79.948378386173	133386
3	301459	79.962218386173	133527
3	301478	79.976058386173	133668
3	302087	80.116846529761	133809
3	302115	80.130686529761	133950
3	302931	80.33342031478	134091
3	302959	80.338456785734	134232
3	303093	80.352296785734	134373
3	303127	80.366136785734	134514
3	303144	80.379976785734	134655
3	303298	80.407656785734	134796
3	303312	80.421496785734	134937
3	303445	80.463016785734	135078
3	303536	80.476856785734	135219
3	303556	80.486032534095	135360
3	303575	80.490696785734	135501
3	303721	80.504536785734	135642
3	304942	80.883626728067	135783
3	305504	81.033626728067	135924
3	305854	81.133626728067	136065
3	305856	81.133626728067	136206
3	305888	81.147466728067	136347
3	306907	81.43342031478	136488
3	307428	81.583626728067	136629
3	307592	81.608384192201	136770
3	307802	81.683626728067	136911
3	308632	81.93396899642	137052
3	308651	81.94780899642	137193
3	308781	81.96164899642	137334
3	308917	81.983626728067	137475
3	308936	81.98932899642	137616
3	309091	82.01700899642	137757
3	309109	82.03084899642	137898
3	309127	82.04468899642	138039
3	309241	82.05852899642	138180
3	309274	82.08620899642	138321
3	309581	82.143584192201	138462
3	309934	82.233626728067	138603
3	309952	82.238456785734	138744
3	309970	82.243584192201	138885
3	310106	82.266136785734	139026
3	310133	82.279976785734	139167
3	310146	82.293816785734	139308
3	310300	82.307656785734	139449
3	310600	82.39876899642	139590
3	310747	82.41260899642	139731
3	310768	82.42644899642	139872
3	310786	82.44028899642	140013
3	310931	82.46796899642	140154
3	310964	82.48180899642	140295
3	311136	82.50948899642	140436
3	311252	82.52332899642	140577
3	311284	82.53342031478	140718
3	311303	82.546355000754	140859
3	311799	82.683626728067	141000
3	312297	82.802296785734	141141
3	312322	82.816136785734	141282
3	312357	82.829976785734	141423
3	312517	82.871496785734	141564
3	312544	82.885336785734	141705
3	312557	82.899176785734	141846
3	313934	83.233626728067	141987
3	313962	83.243584192201	142128
3	314307	83.333626728067	142269
3	314309	83.333626728067	142410
3	315484	83.63342031478	142551
3	315495	83.633626728067	142692
3	316229	83.812112534095	142833
3	316262	83.825952534095	142974
3	316280	83.839792534095	143115
3	316403	83.853632534095	143256
3	316457	83.867472534095	143397
3	316501	83.881312534095	143538
3	316511	83.883626728067	143679
3	316540	83.897466728067	143820
3	316694	83.908992534095	143961
3	316704	83.911306728067	144102
3	316772	83.922832534095	144243
3	316782	83.925146728067	144384
3	317656	84.158384192201	144525
3	317790	84.18342031478	144666
3	317801	84.183626728067	144807
3	317828	84.186064192201	144948
3	317855	84.199904192201	145089
3	318006	84.213744192201	145230
3	318025	84.227584192201	145371
3	318044	84.241424192201	145512
3	318170	84.255264192201	145653
3	318207	84.269104192201	145794
3	318226	84.282944192201	145935
3	318245	84.296784192201	146076
3	318404	84.310624192201	146217
3	318467	84.324464192201	146358
3	318495	84.333626728067	146499
3	318887	84.433626728067	146640
3	319674	84.683626728067	146781
3	321816	85.28342031478	146922
3	322148	85.388266728067	147063
3	322306	85.402106728067	147204
3	322364	85.415946728067	147345
3	322432	85.429786728067	147486
3	322450	85.433626728067	147627
3	322469	85.438456785734	147768
3	322833	85.533626728067	147909
3	323684	85.783730596859	148050
3	323703	85.797570596859	148191
3	323862	85.811410596859	148332
3	323967	85.825250596859	148473
3	323981	85.833626728067	148614
3	323999	85.839090596859	148755
3	324561	85.988456785734	148896
3	325316	86.162302591762	149037
3	325338	86.189982591762	149178
3	325492	86.203822591762	149319
3	325547	86.217662591762	149460
3	325617	86.245342591762	149601
3	325739	86.259182591762	149742
3	325782	86.273022591762	149883
3	325801	86.286862591762	150024
3	325949	86.300702591762	150165
3	325996	86.328382591762	150306
3	326015	86.333626728067	150447
3	326034	86.342222591762	150588
3	326053	86.347466728067	150729
3	326179	86.356062591762	150870
3	326266	86.369902591762	151011
3	326280	86.38342031478	151152
3	326648	86.488266728067	151293
3	326876	86.533626728067	151434
3	326895	86.538456785734	151575
3	327253	86.633626728067	151716
3	328113	86.883626728067	151857
3	328501	86.988266728067	151998
3	328658	87.002106728067	152139
3	328704	87.015946728067	152280
3	328931	87.088456785734	152421
3	329111	87.116136785734	152562
3	329340	87.183626728067	152703
3	330216	87.433626728067	152844
3	330422	87.48342031478	152985
3	330649	87.533626728067	153126
3	330855	87.588266728067	153267
3	331501	87.738456785734	153408
3	331520	87.743584192201	153549
3	331633	87.752296785734	153690
3	331659	87.766136785734	153831
3	331698	87.793816785734	153972
3	331851	87.807656785734	154113
3	331870	87.821496785734	154254
3	331889	87.835336785734	154395
3	332467	87.983626728067	154536
3	333094	88.138266728067	154677
3	333284	88.183626728067	154818
3	333697	88.283626728067	154959
3	333734	88.293584192201	155100
3	333888	88.307424192201	155241
3	334637	88.533730596859	155382
3	334656	88.547570596859	155523
3	334845	88.58342031478	155664
3	335081	88.638266728067	155805
3	335479	88.733626728067	155946
3	336942	89.13342031478	156087
3	337122	89.188266728067	156228
3	337359	89.23396899642	156369
3	337384	89.24780899642	156510
3	337395	89.248426728067	156651
3	337596	89.27548899642	156792
3	337627	89.283626728067	156933
3	337655	89.28932899642	157074
3	337808	89.30316899642	157215
3	337827	89.31700899642	157356
3	338101	89.383626728067	157497
3	338138	89.393584192201	157638
3	341069	90.23342031478	157779
3	341251	90.283626728067	157920
3	341513	90.33396899642	158061
3	341635	90.36164899642	158202
3	341699	90.37548899642	158343
3	342090	90.483626728067	158484
3	342751	90.683626728067	158625
3	342770	90.697466728067	158766
3	342921	90.711306728067	158907
3	344701	91.233626728067	159048
3	345091	91.33342031478	159189
3	345285	91.388266728067	159330
3	345486	91.433626728067	159471
3	345514	91.447466728067	159612
3	345985	91.583626728067	159753
3	347606	92.06164899642	159894
3	347668	92.07548899642	160035
3	347687	92.08932899642	160176
3	347868	92.10316899642	160317
3	347926	92.13084899642	160458
3	348066	92.163075000754	160599
3	348109	92.176915000754	160740
3	348159	92.190755000754	160881
3	348474	92.26164899642	161022
3	348514	92.27548899642	161163
3	348533	92.28932899642	161304
3	348725	92.333626728067	161445
3	349033	92.43342031478	161586
3	349405	92.533626728067	161727
3	349581	92.58396899642	161868
3	349745	92.61164899642	162009
3	349830	92.62548899642	162150
3	350000	92.66700899642	162291
3	350036	92.683626728067	162432
3	350055	92.69468899642	162573
3	350424	92.793584192201	162714
3	350580	92.807424192201	162855
3	350652	92.821264192201	162996
3	350830	92.883730596859	163137
3	350986	92.911410596859	163278
3	351200	92.983730596859	163419
3	351804	93.13396899642	163560
3	351823	93.14780899642	163701
3	351949	93.16164899642	163842
3	352019	93.18932899642	163983
3	352176	93.20316899642	164124
3	352260	93.236032534095	164265
3	352905	93.433730596859	164406
3	352924	93.447570596859	164547
3	353270	93.53342031478	164688
3	353281	93.533626728067	164829
3	353683	93.633626728067	164970
3	353854	93.683626728067	165111
3	355546	94.183626728067	165252
3	355768	94.233626728067	165393
3	356125	94.333626728067	165534
3	356335	94.38396899642	165675
3	356354	94.39780899642	165816
3	356554	94.42548899642	165957
3	356958	94.548224192201	166098
3	357350	94.63342031478	166239
3	357369	94.638266728067	166380
3	358516	94.93396899642	166521
3	358543	94.94780899642	166662
3	358554	94.948426728067	166803
3	358681	94.962266728067	166944
3	358711	94.97548899642	167085
3	358760	94.98932899642	167226
3	359280	95.108384192201	167367
3	359315	95.122224192201	167508
3	359509	95.18342031478	167649
3	359520	95.183626728067	167790
3	359853	95.283626728067	167931
3	360098	95.333626728067	168072
3	360437	95.433626728067	168213
3	360645	95.483626728067	168354
3	360655	95.48396899642	168495
3	360672	95.49780899642	168636
3	360875	95.53932899642	168777
3	361195	95.633626728067	168918
3	361214	95.647466728067	169059
3	361334	95.661306728067	169200
3	362590	96.033626728067	169341
3	363130	96.197466728067	169482
3	363590	96.28342031478	169623
3	363601	96.283626728067	169764
3	363993	96.383626728067	169905
3	364243	96.433626728067	170046
3	364650	96.533626728067	170187
3	364816	96.583626728067	170328
3	365189	96.662206529761	170469
3	365256	96.676046529761	170610
3	365275	96.689886529761	170751
3	365428	96.703726529761	170892
3	365459	96.717566529761	171033
3	365491	96.731406529761	171174
3	365502	96.733626728067	171315
3	365529	96.745246529761	171456
3	365540	96.747466728067	171597
3	367136	97.133626728067	171738
3	367349	97.18396899642	171879
3	367696	97.297466728067	172020
3	368139	97.38342031478	172161
3	368515	97.483626728067	172302
3	368751	97.533626728067	172443
3	369125	97.633626728067	172584
3	369849	97.833626728067	172725
3	370316	97.933626728067	172866
3	371210	98.183626728067	173007
3	371409	98.233626728067	173148
3	371927	98.383626728067	173289
3	371946	98.397466728067	173430
3	372387	98.48342031478	173571
3	372564	98.503066728067	173712
3	372606	98.516906728067	173853
3	372973	98.633626728067	173994
3	374813	99.183626728067	174135
3	375162	99.283730596859	174276
3	375375	99.333626728067	174417
3	375416	99.34876899642	174558
3	375535	99.36260899642	174699
3	375608	99.37644899642	174840
3	375622	99.39028899642	174981
3	375804	99.41796899642	175122
3	375841	99.43180899642	175263
3	376023	99.483626728067	175404
3	376416	99.58342031478	175545
3	376657	99.648272534095	175686
3	376781	99.662112534095	175827
3	377043	99.733626728067	175968
3	378106	100.043584192201	176109
3	378343	100.098426728067	176250
3	378503	100.112266728067	176391
3	381465	100.943726529761	176532
3	381588	100.971406529761	176673
3	381602	100.985246529761	176814
3	383508	101.507566529761	176955
3	383548	101.521406529761	177096
3	385040	101.93396899642	177237
3	385059	101.94780899642	177378
3	385176	101.96164899642	177519
3	385211	101.97548899642	177660
3	385398	102.00316899642	177801
3	385441	102.01700899642	177942
3	385492	102.03084899642	178083
3	385520	102.043726529761	178224
3	385531	102.04468899642	178365
3	385656	102.05852899642	178506
3	385697	102.08620899642	178647
3	387457	102.58396899642	178788
3	396745	105.143726529761	178929
3	396867	105.157566529761	179070
3	396907	105.171406529761	179211
3	396926	105.185246529761	179352
3	396945	105.199086529761	179493

