version 2
run A-0-20191017-20:37:32-27283
attr configname A
attr datetime 20191017-20:37:32
attr experiment A
attr inifile GwSimV1.ini
attr iterationvars ""
attr iterationvarsf ""
attr measurement ""
attr network NetworkTormV2
attr processid 27283
attr repetition 0
attr replication #0
attr resultdir results
attr runnumber 0
attr seedset 0
param **.mobility.traceFile "\"AllPaths/sPaths/A.movements\""
param **.numNodes 4
param **.application.dataGenerationInterval 1s
param **.application.dataSizeInBytes 10
param **.application.ttl 999999s
param **application.nodesThatGen false
param **application.nodesGenMsg "\"\""
param **application.startMultipleMsg false
param **application.numMultipleMsg 100
param **application.hopsListSize 50
param **.application.endGeneratingMsg 99s
param **.routingLayer "\"RoutingLqeGw\""
param **.routing.maximumCacheSize 5000byte
param **.routing.maximumHopCount 25
param **.routing.useTTL false
param **.routing.waitBFsend 0.1
param **.routing.max_age 999999s
param **.routing.gateway_list "\"\""
param **.routing.actual_gateway "\"\""
param **.routing.gwCheckPeriod 5s
param **.neighboring.resetGPeriod 999s
param **.wirelessIfc.wirelessRange 40m
param **.numNodes 2
param **.application.usedRNG 1
param **.application.dataGenerationInterval 1s
param **.application.dataSizeInBytes 10
param **.application.ttl 999999s
param **application.destinationAddr "\"Wf:00:00:00:00:02\""
param **application.destinationBTAddr "\"Bt:00:00:00:00:02\""
param **application.nodesThatGen true
param **application.nodesGenMsg "\"0\""
param **application.startMultipleMsg true
param **application.numMultipleMsg 100
param **application.hopsListSize 50
param **.application.endGeneratingMsg 999999s
param **.routingLayer "\"RoutingLqeGw\""
param **.routing.maximumCacheSize 5000byte
param **.routing.maximumHopCount 25
param **.routing.useTTL false
param **.routing.waitBFsend 0.1
param **.routing.max_age 999999s
param **.routing.gateway_list "\"\""
param **.routing.actual_gateway "\"\""
param **.routing.gwCheckPeriod 5s
param **.neighboring.antiEntropyInterval 500ms
param **.neighboring.maximumRandomBackoffDuration 1s
param **.neighboring.delayPerDataMsg 0.1
param **neighboring.usedRNG 2
param **.neighboring.GWAddr "\"Wf:00:00:00:00:02\""
param **.neighboring.sendWifiFirst true
param **.neighboring.maxLengthGraph 20
param **.neighboring.max_age 999999s
param **.neighboring.max_absent_time 1s
param **.wirelessIfc.wirelessRange 40m
param **.wirelessIfc.neighbourScanInterval 50ms
param **.wirelessIfc.bandwidthBitRate 100000bps
param **.wirelessIfc.wirelessHeaderSize 32byte
param **.wirelessIfc.minSSI -90
param **.wirelessIfc.limitQueueTime 400ms
param **.wirelessIfc.my_limit_rate 0bps
param **.bluetoothIfc.wirelessRange 40m
param **.bluetoothIfc.neighbourScanInterval 100ms
param **.bluetoothIfc.bandwidthBitRate 100000bps
param **.bluetoothIfc.wirelessHeaderSize 16byte
param **.bluetoothIfc.minSSI -90
param **.mobilityType "\"BonnMotionMobility\""
param **.mobility.traceFile "\"paths/Moves2.movements\""
param **.mobility.is3D false
param **.mobility.nodeId -1

vector 0 NetworkTormV2 neighbourhoodSize:vector ETV
attr source neighbourhoodSize
vector 1 NetworkTormV2 deliveryRatio:vector ETV
attr source sum(totalDataBytesReceived)/sum(totalDataBytesReceivableByAllNodes)
vector 2 NetworkTormV2 dataBytesReceivedSum:vector ETV
attr source sum(dataBytesReceived)
vector 3 NetworkTormV2 totalBytesReceivedSum:vector ETV
attr source sum(totalBytesReceived)
0	13	0.05	3
0	14	0.05	3
0	15	0.05	3
0	16	0.05	3
0	50	0.1	3
0	52	0.1	3
0	54	0.1	3
0	56	0.1	3
0	57	0.1	3
0	58	0.1	3
0	59	0.1	3
0	60	0.1	3
0	105	0.15	3
0	106	0.15	3
0	107	0.15	3
0	108	0.15	3
0	141	0.2	3
0	142	0.2	3
0	143	0.2	3
0	144	0.2	3
0	145	0.2	3
0	146	0.2	3
0	147	0.2	3
0	148	0.2	3
0	189	0.25	3
0	190	0.25	3
0	191	0.25	3
0	192	0.25	3
0	225	0.3	3
0	226	0.3	3
0	227	0.3	3
0	228	0.3	3
0	229	0.3	3
0	230	0.3	3
0	231	0.3	3
0	232	0.3	3
0	273	0.35	3
0	274	0.35	3
0	275	0.35	3
0	276	0.35	3
0	309	0.4	3
0	310	0.4	3
0	311	0.4	3
0	312	0.4	3
0	313	0.4	3
0	314	0.4	3
0	315	0.4	3
0	316	0.4	3
0	357	0.45	3
0	358	0.45	3
0	359	0.45	3
0	360	0.45	3
0	393	0.5	3
0	394	0.5	3
0	395	0.5	3
0	396	0.5	3
0	397	0.5	3
0	398	0.5	3
0	399	0.5	3
0	400	0.5	3
0	441	0.55	3
0	442	0.55	3
0	443	0.55	3
0	444	0.55	3
0	477	0.6	3
0	478	0.6	3
0	479	0.6	3
0	480	0.6	3
0	481	0.6	3
0	482	0.6	3
0	483	0.6	3
0	484	0.6	3
0	525	0.65	3
0	526	0.65	3
0	527	0.65	3
0	528	0.65	3
0	561	0.7	3
0	562	0.7	3
0	563	0.7	3
0	564	0.7	3
0	565	0.7	3
0	566	0.7	3
0	567	0.7	3
0	568	0.7	3
0	609	0.75	3
0	610	0.75	3
0	611	0.75	3
0	612	0.75	3
0	645	0.8	3
0	646	0.8	3
0	647	0.8	3
0	648	0.8	3
0	649	0.8	3
0	650	0.8	3
0	651	0.8	3
0	652	0.8	3
0	693	0.85	3
0	694	0.85	3
0	695	0.85	3
0	696	0.85	3
0	729	0.9	3
0	730	0.9	3
0	731	0.9	3
0	732	0.9	3
0	733	0.9	3
0	734	0.9	3
0	735	0.9	3
0	736	0.9	3
0	777	0.95	3
0	778	0.95	3
0	779	0.95	3
0	780	0.95	3
0	813	1	3
0	814	1	3
0	815	1	3
0	816	1	3
0	817	1	3
0	818	1	3
0	819	1	3
0	820	1	3
0	861	1.05	3
0	862	1.05	3
0	863	1.05	3
0	864	1.05	3
0	901	1.1	3
0	902	1.1	3
0	903	1.1	3
0	904	1.1	3
0	905	1.1	3
0	906	1.1	3
0	907	1.1	3
0	908	1.1	3
0	1157	1.15	3
0	1158	1.15	3
0	1159	1.15	3
0	1160	1.15	3
0	1265	1.2	3
0	1266	1.2	3
0	1267	1.2	3
0	1268	1.2	3
0	1269	1.2	3
0	1270	1.2	3
0	1271	1.2	3
0	1272	1.2	3
0	1313	1.25	3
0	1314	1.25	3
0	1315	1.25	3
0	1316	1.25	3
0	1349	1.3	3
0	1350	1.3	3
0	1351	1.3	3
0	1352	1.3	3
0	1353	1.3	3
0	1354	1.3	3
0	1355	1.3	3
0	1356	1.3	3
0	1397	1.35	3
0	1398	1.35	3
0	1399	1.35	3
0	1400	1.35	3
0	1433	1.4	3
0	1434	1.4	3
0	1435	1.4	3
0	1436	1.4	3
0	1437	1.4	3
0	1438	1.4	3
0	1439	1.4	3
0	1440	1.4	3
0	1481	1.45	3
0	1482	1.45	3
0	1483	1.45	3
0	1484	1.45	3
0	1517	1.5	3
0	1518	1.5	3
0	1519	1.5	3
0	1520	1.5	3
0	1521	1.5	3
0	1522	1.5	3
0	1523	1.5	3
0	1524	1.5	3
0	1565	1.55	3
0	1566	1.55	3
0	1567	1.55	3
0	1568	1.55	3
0	1601	1.6	3
0	1602	1.6	3
0	1603	1.6	3
0	1604	1.6	3
0	1605	1.6	3
0	1606	1.6	3
0	1607	1.6	3
0	1608	1.6	3
0	1649	1.65	3
0	1650	1.65	3
0	1651	1.65	3
0	1652	1.65	3
0	1889	1.7	3
0	1890	1.7	3
0	1891	1.7	3
0	1892	1.7	3
0	1893	1.7	3
0	1894	1.7	3
0	1895	1.7	3
0	1896	1.7	3
0	2009	1.75	3
0	2010	1.75	3
0	2011	1.75	3
0	2012	1.75	3
0	2045	1.8	3
0	2046	1.8	3
0	2047	1.8	3
0	2048	1.8	3
0	2049	1.8	3
0	2050	1.8	3
0	2051	1.8	3
0	2052	1.8	3
0	2093	1.85	3
0	2094	1.85	3
0	2095	1.85	3
0	2096	1.85	3
0	2129	1.9	3
0	2130	1.9	3
0	2131	1.9	3
0	2132	1.9	3
0	2133	1.9	3
0	2134	1.9	3
0	2135	1.9	3
0	2136	1.9	3
0	2177	1.95	3
0	2178	1.95	3
0	2179	1.95	3
0	2180	1.95	3
0	2213	2	3
0	2214	2	3
0	2215	2	3
0	2216	2	3
0	2217	2	3
0	2218	2	3
0	2219	2	3
0	2220	2	3
0	2261	2.05	3
0	2262	2.05	3
0	2263	2.05	3
0	2264	2.05	3
0	2301	2.1	3
0	2302	2.1	3
0	2303	2.1	3
0	2304	2.1	3
0	2305	2.1	3
0	2306	2.1	3
0	2307	2.1	3
0	2308	2.1	3
0	2353	2.15	3
0	2354	2.15	3
0	2355	2.15	3
0	2356	2.15	3
0	2389	2.2	3
0	2390	2.2	3
0	2391	2.2	3
0	2392	2.2	3
0	2393	2.2	3
0	2394	2.2	3
0	2395	2.2	3
0	2396	2.2	3
0	2641	2.25	3
0	2642	2.25	3
0	2643	2.25	3
0	2644	2.25	3
0	2749	2.3	3
0	2750	2.3	3
0	2751	2.3	3
0	2752	2.3	3
0	2753	2.3	3
0	2754	2.3	3
0	2755	2.3	3
0	2756	2.3	3
0	2797	2.35	3
0	2798	2.35	3
0	2799	2.35	3
0	2800	2.35	3
0	2833	2.4	3
0	2834	2.4	3
0	2835	2.4	3
0	2836	2.4	3
0	2837	2.4	3
0	2838	2.4	3
0	2839	2.4	3
0	2840	2.4	3
0	2881	2.45	3
0	2882	2.45	3
0	2883	2.45	3
0	2884	2.45	3
0	2917	2.5	3
0	2918	2.5	3
0	2919	2.5	3
0	2920	2.5	3
0	2921	2.5	3
0	2922	2.5	3
0	2923	2.5	3
0	2924	2.5	3
0	2965	2.55	3
0	2966	2.55	3
0	2967	2.55	3
0	2968	2.55	3
0	3001	2.6	3
0	3002	2.6	3
0	3003	2.6	3
0	3004	2.6	3
0	3005	2.6	3
0	3006	2.6	3
0	3007	2.6	3
0	3008	2.6	3
0	3049	2.65	3
0	3050	2.65	3
0	3051	2.65	3
0	3052	2.65	3
0	3085	2.7	3
0	3086	2.7	3
0	3087	2.7	3
0	3088	2.7	3
0	3089	2.7	3
0	3090	2.7	3
0	3091	2.7	3
0	3092	2.7	3
0	3133	2.75	3
0	3134	2.75	3
0	3135	2.75	3
0	3136	2.75	3
0	3373	2.8	3
0	3374	2.8	3
0	3375	2.8	3
0	3376	2.8	3
0	3377	2.8	3
0	3378	2.8	3
0	3379	2.8	3
0	3380	2.8	3
0	3493	2.85	3
0	3494	2.85	3
0	3495	2.85	3
0	3496	2.85	3
0	3529	2.9	3
0	3530	2.9	3
0	3531	2.9	3
0	3532	2.9	3
0	3533	2.9	3
0	3534	2.9	3
0	3535	2.9	3
0	3536	2.9	3
0	3577	2.95	3
0	3578	2.95	3
0	3579	2.95	3
0	3580	2.95	3
0	3613	3	3
0	3614	3	3
0	3615	3	3
0	3616	3	3
0	3617	3	3
0	3618	3	3
0	3619	3	3
0	3620	3	3
0	3661	3.05	3
0	3662	3.05	3
0	3663	3.05	3
0	3664	3.05	3
0	3701	3.1	3
0	3702	3.1	3
0	3703	3.1	3
0	3704	3.1	3
0	3705	3.1	3
0	3706	3.1	3
0	3707	3.1	3
0	3708	3.1	3
0	3753	3.15	3
0	3754	3.15	3
0	3755	3.15	3
0	3756	3.15	3
0	3789	3.2	3
0	3790	3.2	3
0	3791	3.2	3
0	3792	3.2	3
0	3793	3.2	3
0	3794	3.2	3
0	3795	3.2	3
0	3796	3.2	3
0	3837	3.25	3
0	3838	3.25	3
0	3839	3.25	3
0	3840	3.25	3
0	3873	3.3	3
0	3874	3.3	3
0	3875	3.3	3
0	3876	3.3	3
0	3877	3.3	3
0	3878	3.3	3
0	3879	3.3	3
0	3880	3.3	3
0	4125	3.35	3
0	4126	3.35	3
0	4127	3.35	3
0	4128	3.35	3
0	4233	3.4	3
0	4234	3.4	3
0	4235	3.4	3
0	4236	3.4	3
0	4237	3.4	3
0	4238	3.4	3
0	4239	3.4	3
0	4240	3.4	3
0	4281	3.45	3
0	4282	3.45	3
0	4283	3.45	3
0	4284	3.45	3
0	4317	3.5	3
0	4318	3.5	3
0	4319	3.5	3
0	4320	3.5	3
0	4321	3.5	3
0	4322	3.5	3
0	4323	3.5	3
0	4324	3.5	3
0	4365	3.55	3
0	4366	3.55	3
0	4367	3.55	3
0	4368	3.55	3
0	4401	3.6	3
0	4402	3.6	3
0	4403	3.6	3
0	4404	3.6	3
0	4405	3.6	3
0	4406	3.6	3
0	4407	3.6	3
0	4408	3.6	3
0	4449	3.65	3
0	4450	3.65	3
0	4451	3.65	3
0	4452	3.65	3
0	4485	3.7	3
0	4486	3.7	3
0	4487	3.7	3
0	4488	3.7	3
0	4489	3.7	3
0	4490	3.7	3
0	4491	3.7	3
0	4492	3.7	3
0	4533	3.75	3
0	4534	3.75	3
0	4535	3.75	3
0	4536	3.75	3
0	4569	3.8	3
0	4570	3.8	3
0	4571	3.8	3
0	4572	3.8	3
0	4573	3.8	3
0	4574	3.8	3
0	4575	3.8	3
0	4576	3.8	3
0	4617	3.85	3
0	4618	3.85	3
0	4619	3.85	3
0	4620	3.85	3
0	4857	3.9	3
0	4858	3.9	3
0	4859	3.9	3
0	4860	3.9	3
0	4861	3.9	3
0	4862	3.9	3
0	4863	3.9	3
0	4864	3.9	3
0	4977	3.95	3
0	4978	3.95	3
0	4979	3.95	3
0	4980	3.95	3
0	5013	4	3
0	5014	4	3
0	5015	4	3
0	5016	4	3
0	5017	4	3
0	5018	4	3
0	5019	4	3
0	5020	4	3
0	5061	4.05	3
0	5062	4.05	3
0	5063	4.05	3
0	5064	4.05	3
0	5101	4.1	3
0	5102	4.1	3
0	5103	4.1	3
0	5104	4.1	3
0	5105	4.1	3
0	5106	4.1	3
0	5107	4.1	3
0	5108	4.1	3
0	5153	4.15	3
0	5154	4.15	3
0	5155	4.15	3
0	5156	4.15	3
0	5189	4.2	3
0	5190	4.2	3
0	5191	4.2	3
0	5192	4.2	3
0	5193	4.2	3
0	5194	4.2	3
0	5195	4.2	3
0	5196	4.2	3
0	5237	4.25	3
0	5238	4.25	3
0	5239	4.25	3
0	5240	4.25	3
0	5273	4.3	3
0	5274	4.3	3
0	5275	4.3	3
0	5276	4.3	3
0	5277	4.3	3
0	5278	4.3	3
0	5279	4.3	3
0	5280	4.3	3
0	5321	4.35	3
0	5322	4.35	3
0	5323	4.35	3
0	5324	4.35	3
0	5357	4.4	3
0	5358	4.4	3
0	5359	4.4	3
0	5360	4.4	3
0	5361	4.4	3
0	5362	4.4	3
0	5363	4.4	3
0	5364	4.4	3
0	5609	4.45	3
0	5610	4.45	3
0	5611	4.45	3
0	5612	4.45	3
0	5717	4.5	3
0	5718	4.5	3
0	5719	4.5	3
0	5720	4.5	3
0	5721	4.5	3
0	5722	4.5	3
0	5723	4.5	3
0	5724	4.5	3
0	5765	4.55	3
0	5766	4.55	3
0	5767	4.55	3
0	5768	4.55	3
0	5801	4.6	3
0	5802	4.6	3
0	5803	4.6	3
0	5804	4.6	3
0	5805	4.6	3
0	5806	4.6	3
0	5807	4.6	3
0	5808	4.6	3
0	5849	4.65	3
0	5850	4.65	3
0	5851	4.65	3
0	5852	4.65	3
0	5885	4.7	3
0	5886	4.7	3
0	5887	4.7	3
0	5888	4.7	3
0	5889	4.7	3
0	5890	4.7	3
0	5891	4.7	3
0	5892	4.7	3
0	5933	4.75	3
0	5934	4.75	3
0	5935	4.75	3
0	5936	4.75	3
0	5969	4.8	3
0	5970	4.8	3
0	5971	4.8	3
0	5972	4.8	3
0	5973	4.8	3
0	5974	4.8	3
0	5975	4.8	3
0	5976	4.8	3
0	6017	4.85	3
0	6018	4.85	3
0	6019	4.85	3
0	6020	4.85	3
0	6053	4.9	3
0	6054	4.9	3
0	6055	4.9	3
0	6056	4.9	3
0	6057	4.9	3
0	6058	4.9	3
0	6059	4.9	3
0	6060	4.9	3
0	6101	4.95	3
0	6102	4.95	3
0	6103	4.95	3
0	6104	4.95	3
0	6345	5	3
0	6346	5	3
0	6347	5	3
0	6348	5	3
0	6349	5	3
0	6350	5	3
0	6351	5	3
0	6352	5	3
0	6465	5.05	3
0	6466	5.05	3
0	6467	5.05	3
0	6468	5.05	3
0	6505	5.1	3
0	6506	5.1	3
0	6507	5.1	3
0	6508	5.1	3
0	6509	5.1	3
0	6510	5.1	3
0	6511	5.1	3
0	6512	5.1	3
0	6557	5.15	3
0	6558	5.15	3
0	6559	5.15	3
0	6560	5.15	3
0	6593	5.2	3
0	6594	5.2	3
0	6595	5.2	3
0	6596	5.2	3
0	6597	5.2	3
0	6598	5.2	3
0	6599	5.2	3
0	6600	5.2	3
0	6641	5.25	3
0	6642	5.25	3
0	6643	5.25	3
0	6644	5.25	3
0	6677	5.3	3
0	6678	5.3	3
0	6679	5.3	3
0	6680	5.3	3
0	6681	5.3	3
0	6682	5.3	3
0	6683	5.3	3
0	6684	5.3	3
0	6725	5.35	3
0	6726	5.35	3
0	6727	5.35	3
0	6728	5.35	3
0	6761	5.4	3
0	6762	5.4	3
0	6763	5.4	3
0	6764	5.4	3
0	6765	5.4	3
0	6766	5.4	3
0	6767	5.4	3
0	6768	5.4	3
0	6809	5.45	3
0	6810	5.45	3
0	6811	5.45	3
0	6812	5.45	3
0	6849	5.5	3
0	6850	5.5	3
0	6851	5.5	3
0	6852	5.5	3
0	6853	5.5	3
0	6854	5.5	3
0	6855	5.5	3
0	6856	5.5	3
0	7101	5.55	3
0	7102	5.55	3
0	7103	5.55	3
0	7104	5.55	3
0	7209	5.6	3
0	7210	5.6	3
0	7211	5.6	3
0	7212	5.6	3
0	7213	5.6	3
0	7214	5.6	3
0	7215	5.6	3
0	7216	5.6	3
0	7257	5.65	3
0	7258	5.65	3
0	7259	5.65	3
0	7260	5.65	3
0	7293	5.7	3
0	7294	5.7	3
0	7295	5.7	3
0	7296	5.7	3
0	7297	5.7	3
0	7298	5.7	3
0	7299	5.7	3
0	7300	5.7	3
0	7341	5.75	3
0	7342	5.75	3
0	7343	5.75	3
0	7344	5.75	3
0	7377	5.8	3
0	7378	5.8	3
0	7379	5.8	3
0	7380	5.8	3
0	7381	5.8	3
0	7382	5.8	3
0	7383	5.8	3
0	7384	5.8	3
0	7425	5.85	3
0	7426	5.85	3
0	7427	5.85	3
0	7428	5.85	3
0	7461	5.9	3
0	7462	5.9	3
0	7463	5.9	3
0	7464	5.9	3
0	7465	5.9	3
0	7466	5.9	3
0	7467	5.9	3
0	7468	5.9	3
0	7509	5.95	3
0	7510	5.95	3
0	7511	5.95	3
0	7512	5.95	3
0	7549	6	3
0	7550	6	3
0	7551	6	3
0	7552	6	3
0	7553	6	3
0	7554	6	3
0	7555	6	3
0	7556	6	3
0	7597	6.05	3
0	7598	6.05	3
0	7599	6.05	3
0	7600	6.05	3
0	7853	6.1	3
0	7854	6.1	3
0	7855	6.1	3
0	7856	6.1	3
0	7857	6.1	3
0	7858	6.1	3
0	7859	6.1	3
0	7860	6.1	3
0	8143	6.15	3
0	8144	6.15	3
0	8145	6.15	3
0	8146	6.15	3
0	8365	6.2	3
0	8366	6.2	3
0	8367	6.2	3
0	8368	6.2	3
0	8369	6.2	3
0	8370	6.2	3
0	8371	6.2	3
0	8372	6.2	3
0	8449	6.25	3
0	8450	6.25	3
0	8451	6.25	3
0	8452	6.25	3
0	8485	6.3	3
0	8486	6.3	3
0	8487	6.3	3
0	8488	6.3	3
0	8489	6.3	3
0	8490	6.3	3
0	8491	6.3	3
0	8492	6.3	3
0	8533	6.35	3
0	8534	6.35	3
0	8535	6.35	3
0	8536	6.35	3
0	8569	6.4	3
0	8570	6.4	3
0	8571	6.4	3
0	8572	6.4	3
0	8573	6.4	3
0	8574	6.4	3
0	8575	6.4	3
0	8576	6.4	3
0	8617	6.45	3
0	8618	6.45	3
0	8619	6.45	3
0	8620	6.45	3
0	8657	6.5	3
0	8658	6.5	3
0	8659	6.5	3
0	8660	6.5	3
0	8661	6.5	3
0	8662	6.5	3
0	8663	6.5	3
0	8664	6.5	3
0	8705	6.55	3
0	8706	6.55	3
0	8707	6.55	3
0	8708	6.55	3
0	8741	6.6	3
0	8742	6.6	3
0	8743	6.6	3
0	8744	6.6	3
0	8745	6.6	3
0	8746	6.6	3
0	8747	6.6	3
0	8748	6.6	3
0	8995	6.65	3
0	8996	6.65	3
0	8997	6.65	3
0	8998	6.65	3
0	9121	6.7	3
0	9122	6.7	3
0	9123	6.7	3
0	9124	6.7	3
0	9125	6.7	3
0	9126	6.7	3
0	9127	6.7	3
0	9128	6.7	3
0	9169	6.75	3
0	9170	6.75	3
0	9171	6.75	3
0	9172	6.75	3
0	9205	6.8	3
0	9206	6.8	3
0	9207	6.8	3
0	9208	6.8	3
0	9209	6.8	3
0	9210	6.8	3
0	9211	6.8	3
0	9212	6.8	3
0	9253	6.85	3
0	9254	6.85	3
0	9255	6.85	3
0	9256	6.85	3
0	9289	6.9	3
0	9290	6.9	3
0	9291	6.9	3
0	9292	6.9	3
0	9293	6.9	3
0	9294	6.9	3
0	9295	6.9	3
0	9296	6.9	3
0	9337	6.95	3
0	9338	6.95	3
0	9339	6.95	3
0	9340	6.95	3
0	9374	7	3
0	9375	7	3
0	9376	7	3
0	9377	7	3
0	9378	7	3
0	9379	7	3
0	9380	7	3
0	9381	7	3
0	9422	7.05	3
0	9423	7.05	3
0	9424	7.05	3
0	9425	7.05	3
0	9462	7.1	3
0	9463	7.1	3
0	9464	7.1	3
0	9465	7.1	3
0	9466	7.1	3
0	9467	7.1	3
0	9468	7.1	3
0	9469	7.1	3
0	9515	7.15	3
0	9516	7.15	3
0	9517	7.15	3
0	9518	7.15	3
0	9757	7.2	3
0	9758	7.2	3
0	9759	7.2	3
0	9760	7.2	3
0	9761	7.2	3
0	9762	7.2	3
0	9763	7.2	3
0	9764	7.2	3
0	9938	7.25	3
0	9939	7.25	3
0	9940	7.25	3
0	9941	7.25	3
0	9974	7.3	3
0	9975	7.3	3
0	9976	7.3	3
0	9977	7.3	3
0	9978	7.3	3
0	9979	7.3	3
0	9980	7.3	3
0	9981	7.3	3
0	10022	7.35	3
0	10023	7.35	3
0	10024	7.35	3
0	10025	7.35	3
0	10058	7.4	3
0	10059	7.4	3
0	10060	7.4	3
0	10061	7.4	3
0	10062	7.4	3
0	10063	7.4	3
0	10064	7.4	3
0	10065	7.4	3
0	10106	7.45	3
0	10107	7.45	3
0	10108	7.45	3
0	10109	7.45	3
0	10143	7.5	3
0	10144	7.5	3
0	10145	7.5	3
0	10146	7.5	3
0	10147	7.5	3
0	10148	7.5	3
0	10149	7.5	3
0	10150	7.5	3
0	10191	7.55	3
0	10192	7.55	3
0	10193	7.55	3
0	10194	7.55	3
0	10227	7.6	3
0	10228	7.6	3
0	10229	7.6	3
0	10230	7.6	3
0	10231	7.6	3
0	10232	7.6	3
0	10233	7.6	3
0	10234	7.6	3
0	10275	7.65	3
0	10276	7.65	3
0	10277	7.65	3
0	10278	7.65	3
0	10311	7.7	3
0	10312	7.7	3
0	10313	7.7	3
0	10314	7.7	3
0	10315	7.7	3
0	10316	7.7	3
0	10317	7.7	3
0	10318	7.7	3
0	10563	7.75	3
0	10564	7.75	3
0	10565	7.75	3
0	10566	7.75	3
0	10671	7.8	3
0	10672	7.8	3
0	10673	7.8	3
0	10674	7.8	3
0	10675	7.8	3
0	10676	7.8	3
0	10677	7.8	3
0	10678	7.8	3
0	10719	7.85	3
0	10720	7.85	3
0	10721	7.85	3
0	10722	7.85	3
0	10755	7.9	3
0	10756	7.9	3
0	10757	7.9	3
0	10758	7.9	3
0	10759	7.9	3
0	10760	7.9	3
0	10761	7.9	3
0	10762	7.9	3
0	10803	7.95	3
0	10804	7.95	3
0	10805	7.95	3
0	10806	7.95	3
0	10839	8	3
0	10840	8	3
0	10841	8	3
0	10842	8	3
0	10843	8	3
0	10844	8	3
0	10845	8	3
0	10846	8	3
0	10887	8.05	3
0	10888	8.05	3
0	10889	8.05	3
0	10890	8.05	3
0	10927	8.1	3
0	10928	8.1	3
0	10929	8.1	3
0	10930	8.1	3
0	10931	8.1	3
0	10932	8.1	3
0	10933	8.1	3
0	10934	8.1	3
0	10980	8.15	3
0	10981	8.15	3
0	10982	8.15	3
0	10983	8.15	3
0	11016	8.2	3
0	11017	8.2	3
0	11018	8.2	3
0	11019	8.2	3
0	11020	8.2	3
0	11021	8.2	3
0	11022	8.2	3
0	11023	8.2	3
0	11064	8.25	3
0	11065	8.25	3
0	11066	8.25	3
0	11067	8.25	3
0	11306	8.3	3
0	11307	8.3	3
0	11308	8.3	3
0	11309	8.3	3
0	11310	8.3	3
0	11311	8.3	3
0	11312	8.3	3
0	11313	8.3	3
0	11487	8.35	3
0	11488	8.35	3
0	11489	8.35	3
0	11490	8.35	3
0	11523	8.4	3
0	11524	8.4	3
0	11525	8.4	3
0	11526	8.4	3
0	11527	8.4	3
0	11528	8.4	3
0	11529	8.4	3
0	11530	8.4	3
0	11571	8.45	3
0	11572	8.45	3
0	11573	8.45	3
0	11574	8.45	3
0	11607	8.5	3
0	11608	8.5	3
0	11609	8.5	3
0	11610	8.5	3
0	11611	8.5	3
0	11612	8.5	3
0	11613	8.5	3
0	11614	8.5	3
0	11655	8.55	3
0	11656	8.55	3
0	11657	8.55	3
0	11658	8.55	3
0	11691	8.6	3
0	11692	8.6	3
0	11693	8.6	3
0	11694	8.6	3
0	11695	8.6	3
0	11696	8.6	3
0	11697	8.6	3
0	11698	8.6	3
0	11739	8.65	3
0	11740	8.65	3
0	11741	8.65	3
0	11742	8.65	3
0	11775	8.7	3
0	11776	8.7	3
0	11777	8.7	3
0	11778	8.7	3
0	11779	8.7	3
0	11780	8.7	3
0	11781	8.7	3
0	11782	8.7	3
0	11823	8.75	3
0	11824	8.75	3
0	11825	8.75	3
0	11826	8.75	3
0	11859	8.8	3
0	11860	8.8	3
0	11861	8.8	3
0	11862	8.8	3
0	11863	8.8	3
0	11864	8.8	3
0	11865	8.8	3
0	11866	8.8	3
0	12111	8.85	3
0	12112	8.85	3
0	12113	8.85	3
0	12114	8.85	3
0	12219	8.9	3
0	12220	8.9	3
0	12221	8.9	3
0	12222	8.9	3
0	12223	8.9	3
0	12224	8.9	3
0	12225	8.9	3
0	12226	8.9	3
0	12267	8.95	3
0	12268	8.95	3
0	12269	8.95	3
0	12270	8.95	3
0	12303	9	3
0	12304	9	3
0	12305	9	3
0	12306	9	3
0	12307	9	3
0	12308	9	3
0	12309	9	3
0	12310	9	3
0	12351	9.05	3
0	12352	9.05	3
0	12353	9.05	3
0	12354	9.05	3
0	12391	9.1	3
0	12392	9.1	3
0	12393	9.1	3
0	12394	9.1	3
0	12395	9.1	3
0	12396	9.1	3
0	12397	9.1	3
0	12398	9.1	3
0	12444	9.15	3
0	12445	9.15	3
0	12446	9.15	3
0	12447	9.15	3
0	12480	9.2	3
0	12481	9.2	3
0	12482	9.2	3
0	12483	9.2	3
0	12484	9.2	3
0	12485	9.2	3
0	12486	9.2	3
0	12487	9.2	3
0	12528	9.25	3
0	12529	9.25	3
0	12530	9.25	3
0	12531	9.25	3
0	12564	9.3	3
0	12565	9.3	3
0	12566	9.3	3
0	12567	9.3	3
0	12568	9.3	3
0	12569	9.3	3
0	12570	9.3	3
0	12571	9.3	3
0	12612	9.35	3
0	12613	9.35	3
0	12614	9.35	3
0	12615	9.35	3
0	12854	9.4	3
0	12855	9.4	3
0	12856	9.4	3
0	12857	9.4	3
0	12858	9.4	3
0	12859	9.4	3
0	12860	9.4	3
0	12861	9.4	3
0	13035	9.45	3
0	13036	9.45	3
0	13037	9.45	3
0	13038	9.45	3
0	13071	9.5	3
0	13072	9.5	3
0	13073	9.5	3
0	13074	9.5	3
0	13075	9.5	3
0	13076	9.5	3
0	13077	9.5	3
0	13078	9.5	3
0	13119	9.55	3
0	13120	9.55	3
0	13121	9.55	3
0	13122	9.55	3
0	13155	9.6	3
0	13156	9.6	3
0	13157	9.6	3
0	13158	9.6	3
0	13159	9.6	3
0	13160	9.6	3
0	13161	9.6	3
0	13162	9.6	3
0	13203	9.65	3
0	13204	9.65	3
0	13205	9.65	3
0	13206	9.65	3
0	13239	9.7	3
0	13240	9.7	3
0	13241	9.7	3
0	13242	9.7	3
0	13243	9.7	3
0	13244	9.7	3
0	13245	9.7	3
0	13246	9.7	3
0	13287	9.75	3
0	13288	9.75	3
0	13289	9.75	3
0	13290	9.75	3
0	13323	9.8	3
0	13324	9.8	3
0	13325	9.8	3
0	13326	9.8	3
0	13327	9.8	3
0	13328	9.8	3
0	13329	9.8	3
0	13330	9.8	3
0	13371	9.85	3
0	13372	9.85	3
0	13373	9.85	3
0	13374	9.85	3
0	13407	9.9	3
0	13408	9.9	3
0	13409	9.9	3
0	13410	9.9	3
0	13411	9.9	3
0	13412	9.9	3
0	13413	9.9	3
0	13414	9.9	3
0	13659	9.95	3
0	13660	9.95	3
0	13661	9.95	3
0	13662	9.95	3
0	13767	10	3
0	13768	10	3
0	13769	10	3
0	13770	10	3
0	13771	10	3
0	13772	10	3
0	13773	10	3
0	13774	10	3
0	13815	10.05	3
0	13816	10.05	3
0	13817	10.05	3
0	13818	10.05	3
0	13855	10.1	3
0	13856	10.1	3
0	13857	10.1	3
0	13858	10.1	3
0	13859	10.1	3
0	13860	10.1	3
0	13861	10.1	3
0	13862	10.1	3
0	13908	10.15	3
0	13909	10.15	3
0	13910	10.15	3
0	13911	10.15	3
0	13944	10.2	3
0	13945	10.2	3
0	13946	10.2	3
0	13947	10.2	3
0	13948	10.2	3
0	13949	10.2	3
0	13950	10.2	3
0	13951	10.2	3
0	13992	10.25	3
0	13993	10.25	3
0	13994	10.25	3
0	13995	10.25	3
0	14028	10.3	3
0	14029	10.3	3
0	14030	10.3	3
0	14031	10.3	3
0	14032	10.3	3
0	14033	10.3	3
0	14034	10.3	3
0	14035	10.3	3
0	14076	10.35	3
0	14077	10.35	3
0	14078	10.35	3
0	14079	10.35	3
0	14112	10.4	3
0	14113	10.4	3
0	14114	10.4	3
0	14115	10.4	3
0	14116	10.4	3
0	14117	10.4	3
0	14118	10.4	3
0	14119	10.4	3
0	14160	10.45	3
0	14161	10.45	3
0	14162	10.45	3
0	14163	10.45	3
0	14402	10.5	3
0	14403	10.5	3
0	14404	10.5	3
0	14405	10.5	3
0	14406	10.5	3
0	14407	10.5	3
0	14408	10.5	3
0	14409	10.5	3
0	14583	10.55	3
0	14584	10.55	3
0	14585	10.55	3
0	14586	10.55	3
0	14619	10.6	3
0	14620	10.6	3
0	14621	10.6	3
0	14622	10.6	3
0	14623	10.6	3
0	14624	10.6	3
0	14625	10.6	3
0	14626	10.6	3
0	14667	10.65	3
0	14668	10.65	3
0	14669	10.65	3
0	14670	10.65	3
0	14703	10.7	3
0	14704	10.7	3
0	14705	10.7	3
0	14706	10.7	3
0	14707	10.7	3
0	14708	10.7	3
0	14709	10.7	3
0	14710	10.7	3
0	14751	10.75	3
0	14752	10.75	3
0	14753	10.75	3
0	14754	10.75	3
0	14787	10.8	3
0	14788	10.8	3
0	14789	10.8	3
0	14790	10.8	3
0	14791	10.8	3
0	14792	10.8	3
0	14793	10.8	3
0	14794	10.8	3
0	14835	10.85	3
0	14836	10.85	3
0	14837	10.85	3
0	14838	10.85	3
0	14871	10.9	3
0	14872	10.9	3
0	14873	10.9	3
0	14874	10.9	3
0	14875	10.9	3
0	14876	10.9	3
0	14877	10.9	3
0	14878	10.9	3
0	14919	10.95	3
0	14920	10.95	3
0	14921	10.95	3
0	14922	10.95	3
0	14955	11	3
0	14956	11	3
0	14957	11	3
0	14958	11	3
0	14959	11	3
0	14960	11	3
0	14961	11	3
0	14962	11	3
0	15207	11.05	3
0	15208	11.05	3
0	15209	11.05	3
0	15210	11.05	3
0	15319	11.1	3
0	15320	11.1	3
0	15321	11.1	3
0	15322	11.1	3
0	15323	11.1	3
0	15324	11.1	3
0	15325	11.1	3
0	15326	11.1	3
0	15372	11.15	3
0	15373	11.15	3
0	15374	11.15	3
0	15375	11.15	3
0	15408	11.2	3
0	15409	11.2	3
0	15410	11.2	3
0	15411	11.2	3
0	15412	11.2	3
0	15413	11.2	3
0	15414	11.2	3
0	15415	11.2	3
0	15456	11.25	3
0	15457	11.25	3
0	15458	11.25	3
0	15459	11.25	3
0	15492	11.3	3
0	15493	11.3	3
0	15494	11.3	3
0	15495	11.3	3
0	15496	11.3	3
0	15497	11.3	3
0	15498	11.3	3
0	15499	11.3	3
0	15540	11.35	3
0	15541	11.35	3
0	15542	11.35	3
0	15543	11.35	3
0	15576	11.4	3
0	15577	11.4	3
0	15578	11.4	3
0	15579	11.4	3
0	15580	11.4	3
0	15581	11.4	3
0	15582	11.4	3
0	15583	11.4	3
0	15624	11.45	3
0	15625	11.45	3
0	15626	11.45	3
0	15627	11.45	3
0	15663	11.5	3
0	15664	11.5	3
0	15665	11.5	3
0	15666	11.5	3
0	15667	11.5	3
0	15668	11.5	3
0	15669	11.5	3
0	15670	11.5	3
0	15711	11.55	3
0	15712	11.55	3
0	15713	11.55	3
0	15714	11.55	3
0	15953	11.6	3
0	15954	11.6	3
0	15955	11.6	3
0	15956	11.6	3
0	15957	11.6	3
0	15958	11.6	3
0	15959	11.6	3
0	15960	11.6	3
0	16134	11.65	3
0	16135	11.65	3
0	16136	11.65	3
0	16137	11.65	3
0	16170	11.7	3
0	16171	11.7	3
0	16172	11.7	3
0	16173	11.7	3
0	16174	11.7	3
0	16175	11.7	3
0	16176	11.7	3
0	16177	11.7	3
0	16218	11.75	3
0	16219	11.75	3
0	16220	11.75	3
0	16221	11.75	3
0	16254	11.8	3
0	16255	11.8	3
0	16256	11.8	3
0	16257	11.8	3
0	16258	11.8	3
0	16259	11.8	3
0	16260	11.8	3
0	16261	11.8	3
0	16302	11.85	3
0	16303	11.85	3
0	16304	11.85	3
0	16305	11.85	3
0	16338	11.9	3
0	16339	11.9	3
0	16340	11.9	3
0	16341	11.9	3
0	16342	11.9	3
0	16343	11.9	3
0	16344	11.9	3
0	16345	11.9	3
0	16386	11.95	3
0	16387	11.95	3
0	16388	11.95	3
0	16389	11.95	3
0	16422	12	3
0	16423	12	3
0	16424	12	3
0	16425	12	3
0	16426	12	3
0	16427	12	3
0	16428	12	3
0	16429	12	3
0	16470	12.05	3
0	16471	12.05	3
0	16472	12.05	3
0	16473	12.05	3
0	16510	12.1	3
0	16511	12.1	3
0	16512	12.1	3
0	16513	12.1	3
0	16514	12.1	3
0	16515	12.1	3
0	16516	12.1	3
0	16517	12.1	3
0	16769	12.15	3
0	16770	12.15	3
0	16771	12.15	3
0	16772	12.15	3
0	16938	12.2	3
0	16939	12.2	3
0	16940	12.2	3
0	16941	12.2	3
0	16942	12.2	3
0	16943	12.2	3
0	16944	12.2	3
0	16945	12.2	3
0	16986	12.25	3
0	16987	12.25	3
0	16988	12.25	3
0	16989	12.25	3
0	17022	12.3	3
0	17023	12.3	3
0	17024	12.3	3
0	17025	12.3	3
0	17026	12.3	3
0	17027	12.3	3
0	17028	12.3	3
0	17029	12.3	3
0	17070	12.35	3
0	17071	12.35	3
0	17072	12.35	3
0	17073	12.35	3
0	17106	12.4	3
0	17107	12.4	3
0	17108	12.4	3
0	17109	12.4	3
0	17110	12.4	3
0	17111	12.4	3
0	17112	12.4	3
0	17113	12.4	3
0	17154	12.45	3
0	17155	12.45	3
0	17156	12.45	3
0	17157	12.45	3
0	17194	12.5	3
0	17195	12.5	3
0	17196	12.5	3
0	17197	12.5	3
0	17198	12.5	3
0	17199	12.5	3
0	17200	12.5	3
0	17201	12.5	3
0	17242	12.55	3
0	17243	12.55	3
0	17244	12.55	3
0	17245	12.55	3
0	17278	12.6	3
0	17279	12.6	3
0	17280	12.6	3
0	17281	12.6	3
0	17282	12.6	3
0	17283	12.6	3
0	17284	12.6	3
0	17285	12.6	3
0	17326	12.65	3
0	17327	12.65	3
0	17328	12.65	3
0	17329	12.65	3
0	17566	12.7	3
0	17567	12.7	3
0	17568	12.7	3
0	17569	12.7	3
0	17570	12.7	3
0	17571	12.7	3
0	17572	12.7	3
0	17573	12.7	3
0	17686	12.75	3
0	17687	12.75	3
0	17688	12.75	3
0	17689	12.75	3
0	17722	12.8	3
0	17723	12.8	3
0	17724	12.8	3
0	17725	12.8	3
0	17726	12.8	3
0	17727	12.8	3
0	17728	12.8	3
0	17729	12.8	3
0	17770	12.85	3
0	17771	12.85	3
0	17772	12.85	3
0	17773	12.85	3
0	17806	12.9	3
0	17807	12.9	3
0	17808	12.9	3
0	17809	12.9	3
0	17810	12.9	3
0	17811	12.9	3
0	17812	12.9	3
0	17813	12.9	3
0	17854	12.95	3
0	17855	12.95	3
0	17856	12.95	3
0	17857	12.95	3
0	17890	13	3
0	17891	13	3
0	17892	13	3
0	17893	13	3
0	17894	13	3
0	17895	13	3
0	17896	13	3
0	17897	13	3
0	17938	13.05	3
0	17939	13.05	3
0	17940	13.05	3
0	17941	13.05	3
0	17978	13.1	3
0	17979	13.1	3
0	17980	13.1	3
0	17981	13.1	3
0	17982	13.1	3
0	17983	13.1	3
0	17984	13.1	3
0	17985	13.1	3
0	18031	13.15	3
0	18032	13.15	3
0	18033	13.15	3
0	18034	13.15	3
0	18067	13.2	3
0	18068	13.2	3
0	18069	13.2	3
0	18070	13.2	3
0	18071	13.2	3
0	18072	13.2	3
0	18073	13.2	3
0	18074	13.2	3
0	18321	13.25	3
0	18322	13.25	3
0	18323	13.25	3
0	18324	13.25	3
0	18490	13.3	3
0	18491	13.3	3
0	18492	13.3	3
0	18493	13.3	3
0	18494	13.3	3
0	18495	13.3	3
0	18496	13.3	3
0	18497	13.3	3
0	18538	13.35	3
0	18539	13.35	3
0	18540	13.35	3
0	18541	13.35	3
0	18574	13.4	3
0	18575	13.4	3
0	18576	13.4	3
0	18577	13.4	3
0	18578	13.4	3
0	18579	13.4	3
0	18580	13.4	3
0	18581	13.4	3
0	18622	13.45	3
0	18623	13.45	3
0	18624	13.45	3
0	18625	13.45	3
0	18662	13.5	3
0	18663	13.5	3
0	18664	13.5	3
0	18665	13.5	3
0	18666	13.5	3
0	18667	13.5	3
0	18668	13.5	3
0	18669	13.5	3
0	18710	13.55	3
0	18711	13.55	3
0	18712	13.55	3
0	18713	13.55	3
0	18746	13.6	3
0	18747	13.6	3
0	18748	13.6	3
0	18749	13.6	3
0	18750	13.6	3
0	18751	13.6	3
0	18752	13.6	3
0	18753	13.6	3
0	18794	13.65	3
0	18795	13.65	3
0	18796	13.65	3
0	18797	13.65	3
0	18830	13.7	3
0	18831	13.7	3
0	18832	13.7	3
0	18833	13.7	3
0	18834	13.7	3
0	18835	13.7	3
0	18836	13.7	3
0	18837	13.7	3
0	18878	13.75	3
0	18879	13.75	3
0	18880	13.75	3
0	18881	13.75	3
0	19118	13.8	3
0	19119	13.8	3
0	19120	13.8	3
0	19121	13.8	3
0	19122	13.8	3
0	19123	13.8	3
0	19124	13.8	3
0	19125	13.8	3
0	19238	13.85	3
0	19239	13.85	3
0	19240	13.85	3
0	19241	13.85	3
0	19274	13.9	3
0	19275	13.9	3
0	19276	13.9	3
0	19277	13.9	3
0	19278	13.9	3
0	19279	13.9	3
0	19280	13.9	3
0	19281	13.9	3
0	19322	13.95	3
0	19323	13.95	3
0	19324	13.95	3
0	19325	13.95	3
0	19358	14	3
0	19359	14	3
0	19360	14	3
0	19361	14	3
0	19362	14	3
0	19363	14	3
0	19364	14	3
0	19365	14	3
0	19406	14.05	3
0	19407	14.05	3
0	19408	14.05	3
0	19409	14.05	3
0	19446	14.1	3
0	19447	14.1	3
0	19448	14.1	3
0	19449	14.1	3
0	19450	14.1	3
0	19451	14.1	3
0	19452	14.1	3
0	19453	14.1	3
0	19499	14.15	3
0	19500	14.15	3
0	19501	14.15	3
0	19502	14.15	3
0	19535	14.2	3
0	19536	14.2	3
0	19537	14.2	3
0	19538	14.2	3
0	19539	14.2	3
0	19540	14.2	3
0	19541	14.2	3
0	19542	14.2	3
0	19583	14.25	3
0	19584	14.25	3
0	19585	14.25	3
0	19586	14.25	3
0	19619	14.3	3
0	19620	14.3	3
0	19621	14.3	3
0	19622	14.3	3
0	19623	14.3	3
0	19624	14.3	3
0	19625	14.3	3
0	19626	14.3	3
0	19873	14.35	3
0	19874	14.35	3
0	19875	14.35	3
0	19876	14.35	3
0	20042	14.4	3
0	20043	14.4	3
0	20044	14.4	3
0	20045	14.4	3
0	20046	14.4	3
0	20047	14.4	3
0	20048	14.4	3
0	20049	14.4	3
0	20090	14.45	3
0	20091	14.45	3
0	20092	14.45	3
0	20093	14.45	3
0	20127	14.5	3
0	20128	14.5	3
0	20129	14.5	3
0	20130	14.5	3
0	20131	14.5	3
0	20132	14.5	3
0	20133	14.5	3
0	20134	14.5	3
0	20175	14.55	3
0	20176	14.55	3
0	20177	14.55	3
0	20178	14.55	3
0	20211	14.6	3
0	20212	14.6	3
0	20213	14.6	3
0	20214	14.6	3
0	20215	14.6	3
0	20216	14.6	3
0	20217	14.6	3
0	20218	14.6	3
0	20259	14.65	3
0	20260	14.65	3
0	20261	14.65	3
0	20262	14.65	3
0	20295	14.7	3
0	20296	14.7	3
0	20297	14.7	3
0	20298	14.7	3
0	20299	14.7	3
0	20300	14.7	3
0	20301	14.7	3
0	20302	14.7	3
0	20343	14.75	3
0	20344	14.75	3
0	20345	14.75	3
0	20346	14.75	3
0	20379	14.8	3
0	20380	14.8	3
0	20381	14.8	3
0	20382	14.8	3
0	20383	14.8	3
0	20384	14.8	3
0	20385	14.8	3
0	20386	14.8	3
0	20427	14.85	3
0	20428	14.85	3
0	20429	14.85	3
0	20430	14.85	3
0	20667	14.9	3
0	20668	14.9	3
0	20669	14.9	3
0	20670	14.9	3
0	20671	14.9	3
0	20672	14.9	3
0	20673	14.9	3
0	20674	14.9	3
0	20787	14.95	3
0	20788	14.95	3
0	20789	14.95	3
0	20790	14.95	3
0	20823	15	3
0	20824	15	3
0	20825	15	3
0	20826	15	3
0	20827	15	3
0	20828	15	3
0	20829	15	3
0	20830	15	3
0	20871	15.05	3
0	20872	15.05	3
0	20873	15.05	3
0	20874	15.05	3
0	20911	15.1	3
0	20912	15.1	3
0	20913	15.1	3
0	20914	15.1	3
0	20915	15.1	3
0	20916	15.1	3
0	20917	15.1	3
0	20918	15.1	3
0	20964	15.15	3
0	20965	15.15	3
0	20966	15.15	3
0	20967	15.15	3
0	21000	15.2	3
0	21001	15.2	3
0	21002	15.2	3
0	21003	15.2	3
0	21004	15.2	3
0	21005	15.2	3
0	21006	15.2	3
0	21007	15.2	3
0	21048	15.25	3
0	21049	15.25	3
0	21050	15.25	3
0	21051	15.25	3
0	21084	15.3	3
0	21085	15.3	3
0	21086	15.3	3
0	21087	15.3	3
0	21088	15.3	3
0	21089	15.3	3
0	21090	15.3	3
0	21091	15.3	3
0	21132	15.35	3
0	21133	15.35	3
0	21134	15.35	3
0	21135	15.35	3
0	21168	15.4	3
0	21169	15.4	3
0	21170	15.4	3
0	21171	15.4	3
0	21172	15.4	3
0	21173	15.4	3
0	21174	15.4	3
0	21175	15.4	3
0	21422	15.45	3
0	21423	15.45	3
0	21424	15.45	3
0	21425	15.45	3
0	21591	15.5	3
0	21592	15.5	3
0	21593	15.5	3
0	21594	15.5	3
0	21595	15.5	3
0	21596	15.5	3
0	21597	15.5	3
0	21598	15.5	3
0	21639	15.55	3
0	21640	15.55	3
0	21641	15.55	3
0	21642	15.55	3
0	21675	15.6	3
0	21676	15.6	3
0	21677	15.6	3
0	21678	15.6	3
0	21679	15.6	3
0	21680	15.6	3
0	21681	15.6	3
0	21682	15.6	3
0	21723	15.65	3
0	21724	15.65	3
0	21725	15.65	3
0	21726	15.65	3
0	21759	15.7	3
0	21760	15.7	3
0	21761	15.7	3
0	21762	15.7	3
0	21763	15.7	3
0	21764	15.7	3
0	21765	15.7	3
0	21766	15.7	3
0	21807	15.75	3
0	21808	15.75	3
0	21809	15.75	3
0	21810	15.75	3
0	21843	15.8	3
0	21844	15.8	3
0	21845	15.8	3
0	21846	15.8	3
0	21847	15.8	3
0	21848	15.8	3
0	21849	15.8	3
0	21850	15.8	3
0	21891	15.85	3
0	21892	15.85	3
0	21893	15.85	3
0	21894	15.85	3
0	21927	15.9	3
0	21928	15.9	3
0	21929	15.9	3
0	21930	15.9	3
0	21931	15.9	3
0	21932	15.9	3
0	21933	15.9	3
0	21934	15.9	3
0	21975	15.95	3
0	21976	15.95	3
0	21977	15.95	3
0	21978	15.95	3
0	22215	16	3
0	22216	16	3
0	22217	16	3
0	22218	16	3
0	22219	16	3
0	22220	16	3
0	22221	16	3
0	22222	16	3
0	22335	16.05	3
0	22336	16.05	3
0	22337	16.05	3
0	22338	16.05	3
0	22375	16.1	3
0	22376	16.1	3
0	22377	16.1	3
0	22378	16.1	3
0	22379	16.1	3
0	22380	16.1	3
0	22381	16.1	3
0	22382	16.1	3
0	22428	16.15	3
0	22429	16.15	3
0	22430	16.15	3
0	22431	16.15	3
0	22464	16.2	3
0	22465	16.2	3
0	22466	16.2	3
0	22467	16.2	3
0	22468	16.2	3
0	22469	16.2	3
0	22470	16.2	3
0	22471	16.2	3
0	22512	16.25	3
0	22513	16.25	3
0	22514	16.25	3
0	22515	16.25	3
0	22548	16.3	3
0	22549	16.3	3
0	22550	16.3	3
0	22551	16.3	3
0	22552	16.3	3
0	22553	16.3	3
0	22554	16.3	3
0	22555	16.3	3
0	22596	16.35	3
0	22597	16.35	3
0	22598	16.35	3
0	22599	16.35	3
0	22632	16.4	3
0	22633	16.4	3
0	22634	16.4	3
0	22635	16.4	3
0	22636	16.4	3
0	22637	16.4	3
0	22638	16.4	3
0	22639	16.4	3
0	22680	16.45	3
0	22681	16.45	3
0	22682	16.45	3
0	22683	16.45	3
0	22716	16.5	3
0	22717	16.5	3
0	22718	16.5	3
0	22719	16.5	3
0	22720	16.5	3
0	22721	16.5	3
0	22722	16.5	3
0	22723	16.5	3
0	22970	16.55	3
0	22971	16.55	3
0	22972	16.55	3
0	22973	16.55	3
0	23139	16.6	3
0	23140	16.6	3
0	23141	16.6	3
0	23142	16.6	3
0	23143	16.6	3
0	23144	16.6	3
0	23145	16.6	3
0	23146	16.6	3
0	23187	16.65	3
0	23188	16.65	3
0	23189	16.65	3
0	23190	16.65	3
0	23223	16.7	3
0	23224	16.7	3
0	23225	16.7	3
0	23226	16.7	3
0	23227	16.7	3
0	23228	16.7	3
0	23229	16.7	3
0	23230	16.7	3
0	23271	16.75	3
0	23272	16.75	3
0	23273	16.75	3
0	23274	16.75	3
0	23307	16.8	3
0	23308	16.8	3
0	23309	16.8	3
0	23310	16.8	3
0	23311	16.8	3
0	23312	16.8	3
0	23313	16.8	3
0	23314	16.8	3
0	23355	16.85	3
0	23356	16.85	3
0	23357	16.85	3
0	23358	16.85	3
0	23391	16.9	3
0	23392	16.9	3
0	23393	16.9	3
0	23394	16.9	3
0	23395	16.9	3
0	23396	16.9	3
0	23397	16.9	3
0	23398	16.9	3
0	23439	16.95	3
0	23440	16.95	3
0	23441	16.95	3
0	23442	16.95	3
0	23475	17	3
0	23476	17	3
0	23477	17	3
0	23478	17	3
0	23479	17	3
0	23480	17	3
0	23481	17	3
0	23482	17	3
0	23523	17.05	3
0	23524	17.05	3
0	23525	17.05	3
0	23526	17.05	3
0	23767	17.1	3
0	23768	17.1	3
0	23769	17.1	3
0	23770	17.1	3
0	23771	17.1	3
0	23772	17.1	3
0	23773	17.1	3
0	23774	17.1	3
0	23934	17.15	3
0	23935	17.15	3
0	23936	17.15	3
0	23937	17.15	3
0	23970	17.2	3
0	23971	17.2	3
0	23972	17.2	3
0	23973	17.2	3
0	23974	17.2	3
0	23975	17.2	3
0	23976	17.2	3
0	23977	17.2	3
0	24018	17.25	3
0	24019	17.25	3
0	24020	17.25	3
0	24021	17.25	3
0	24054	17.3	3
0	24055	17.3	3
0	24056	17.3	3
0	24057	17.3	3
0	24058	17.3	3
0	24059	17.3	3
0	24060	17.3	3
0	24061	17.3	3
0	24102	17.35	3
0	24103	17.35	3
0	24104	17.35	3
0	24105	17.35	3
0	24138	17.4	3
0	24139	17.4	3
0	24140	17.4	3
0	24141	17.4	3
0	24142	17.4	3
0	24143	17.4	3
0	24144	17.4	3
0	24145	17.4	3
0	24186	17.45	3
0	24187	17.45	3
0	24188	17.45	3
0	24189	17.45	3
0	24222	17.5	3
0	24223	17.5	3
0	24224	17.5	3
0	24225	17.5	3
0	24226	17.5	3
0	24227	17.5	3
0	24228	17.5	3
0	24229	17.5	3
0	24270	17.55	3
0	24271	17.55	3
0	24272	17.55	3
0	24273	17.55	3
0	24306	17.6	3
0	24307	17.6	3
0	24308	17.6	3
0	24309	17.6	3
0	24310	17.6	3
0	24311	17.6	3
0	24312	17.6	3
0	24313	17.6	3
0	24560	17.65	3
0	24561	17.65	3
0	24562	17.65	3
0	24563	17.65	3
0	24687	17.7	3
0	24688	17.7	3
0	24689	17.7	3
0	24690	17.7	3
0	24691	17.7	3
0	24692	17.7	3
0	24693	17.7	3
0	24694	17.7	3
0	24735	17.75	3
0	24736	17.75	3
0	24737	17.75	3
0	24738	17.75	3
0	24771	17.8	3
0	24772	17.8	3
0	24773	17.8	3
0	24774	17.8	3
0	24775	17.8	3
0	24776	17.8	3
0	24777	17.8	3
0	24778	17.8	3
0	24819	17.85	3
0	24820	17.85	3
0	24821	17.85	3
0	24822	17.85	3
0	24855	17.9	3
0	24856	17.9	3
0	24857	17.9	3
0	24858	17.9	3
0	24859	17.9	3
0	24860	17.9	3
0	24861	17.9	3
0	24862	17.9	3
0	24903	17.95	3
0	24904	17.95	3
0	24905	17.95	3
0	24906	17.95	3
0	24939	18	3
0	24940	18	3
0	24941	18	3
0	24942	18	3
0	24943	18	3
0	24944	18	3
0	24945	18	3
0	24946	18	3
0	24987	18.05	3
0	24988	18.05	3
0	24989	18.05	3
0	24990	18.05	3
0	25027	18.1	3
0	25028	18.1	3
0	25029	18.1	3
0	25030	18.1	3
0	25031	18.1	3
0	25032	18.1	3
0	25033	18.1	3
0	25034	18.1	3
0	25080	18.15	3
0	25081	18.15	3
0	25082	18.15	3
0	25083	18.15	3
0	25322	18.2	3
0	25323	18.2	3
0	25324	18.2	3
0	25325	18.2	3
0	25326	18.2	3
0	25327	18.2	3
0	25328	18.2	3
0	25329	18.2	3
0	25503	18.25	3
0	25504	18.25	3
0	25505	18.25	3
0	25506	18.25	3
0	25539	18.3	3
0	25540	18.3	3
0	25541	18.3	3
0	25542	18.3	3
0	25543	18.3	3
0	25544	18.3	3
0	25545	18.3	3
0	25546	18.3	3
0	25587	18.35	3
0	25588	18.35	3
0	25589	18.35	3
0	25590	18.35	3
0	25623	18.4	3
0	25624	18.4	3
0	25625	18.4	3
0	25626	18.4	3
0	25627	18.4	3
0	25628	18.4	3
0	25629	18.4	3
0	25630	18.4	3
0	25671	18.45	3
0	25672	18.45	3
0	25673	18.45	3
0	25674	18.45	3
0	25710	18.5	3
0	25711	18.5	3
0	25712	18.5	3
0	25713	18.5	3
0	25714	18.5	3
0	25715	18.5	3
0	25716	18.5	3
0	25717	18.5	3
0	25758	18.55	3
0	25759	18.55	3
0	25760	18.55	3
0	25761	18.55	3
0	25794	18.6	3
0	25795	18.6	3
0	25796	18.6	3
0	25797	18.6	3
0	25798	18.6	3
0	25799	18.6	3
0	25800	18.6	3
0	25801	18.6	3
0	25842	18.65	3
0	25843	18.65	3
0	25844	18.65	3
0	25845	18.65	3
0	25878	18.7	3
0	25879	18.7	3
0	25880	18.7	3
0	25881	18.7	3
0	25882	18.7	3
0	25883	18.7	3
0	25884	18.7	3
0	25885	18.7	3
0	26130	18.75	3
0	26131	18.75	3
0	26132	18.75	3
0	26133	18.75	3
0	26238	18.8	3
0	26239	18.8	3
0	26240	18.8	3
0	26241	18.8	3
0	26242	18.8	3
0	26243	18.8	3
0	26244	18.8	3
0	26245	18.8	3
0	26286	18.85	3
0	26287	18.85	3
0	26288	18.85	3
0	26289	18.85	3
0	26322	18.9	3
0	26323	18.9	3
0	26324	18.9	3
0	26325	18.9	3
0	26326	18.9	3
0	26327	18.9	3
0	26328	18.9	3
0	26329	18.9	3
0	26370	18.95	3
0	26371	18.95	3
0	26372	18.95	3
0	26373	18.95	3
0	26406	19	3
0	26407	19	3
0	26408	19	3
0	26409	19	3
0	26410	19	3
0	26411	19	3
0	26412	19	3
0	26413	19	3
0	26454	19.05	3
0	26455	19.05	3
0	26456	19.05	3
0	26457	19.05	3
0	26494	19.1	3
0	26495	19.1	3
0	26496	19.1	3
0	26497	19.1	3
0	26498	19.1	3
0	26499	19.1	3
0	26500	19.1	3
0	26501	19.1	3
0	26547	19.15	3
0	26548	19.15	3
0	26549	19.15	3
0	26550	19.15	3
0	26583	19.2	3
0	26584	19.2	3
0	26585	19.2	3
0	26586	19.2	3
0	26587	19.2	3
0	26588	19.2	3
0	26589	19.2	3
0	26590	19.2	3
0	26631	19.25	3
0	26632	19.25	3
0	26633	19.25	3
0	26634	19.25	3
0	26873	19.3	3
0	26874	19.3	3
0	26875	19.3	3
0	26876	19.3	3
0	26877	19.3	3
0	26878	19.3	3
0	26879	19.3	3
0	26880	19.3	3
0	27054	19.35	3
0	27055	19.35	3
0	27056	19.35	3
0	27057	19.35	3
0	27090	19.4	3
0	27091	19.4	3
0	27092	19.4	3
0	27093	19.4	3
0	27094	19.4	3
0	27095	19.4	3
0	27096	19.4	3
0	27097	19.4	3
0	27138	19.45	3
0	27139	19.45	3
0	27140	19.45	3
0	27141	19.45	3
0	27175	19.5	3
0	27176	19.5	3
0	27177	19.5	3
0	27178	19.5	3
0	27179	19.5	3
0	27180	19.5	3
0	27181	19.5	3
0	27182	19.5	3
0	27223	19.55	3
0	27224	19.55	3
0	27225	19.55	3
0	27226	19.55	3
0	27259	19.6	3
0	27260	19.6	3
0	27261	19.6	3
0	27262	19.6	3
0	27263	19.6	3
0	27264	19.6	3
0	27265	19.6	3
0	27266	19.6	3
0	27307	19.65	3
0	27308	19.65	3
0	27309	19.65	3
0	27310	19.65	3
0	27343	19.7	3
0	27344	19.7	3
0	27345	19.7	3
0	27346	19.7	3
0	27347	19.7	3
0	27348	19.7	3
0	27349	19.7	3
0	27350	19.7	3
0	27391	19.75	3
0	27392	19.75	3
0	27393	19.75	3
0	27394	19.75	3
0	27427	19.8	3
0	27428	19.8	3
0	27429	19.8	3
0	27430	19.8	3
0	27431	19.8	3
0	27432	19.8	3
0	27433	19.8	3
0	27434	19.8	3
0	27679	19.85	3
0	27680	19.85	3
0	27681	19.85	3
0	27682	19.85	3
0	27787	19.9	3
0	27788	19.9	3
0	27789	19.9	3
0	27790	19.9	3
0	27791	19.9	3
0	27792	19.9	3
0	27793	19.9	3
0	27794	19.9	3
0	27835	19.95	3
0	27836	19.95	3
0	27837	19.95	3
0	27838	19.95	3
0	27871	20	3
0	27872	20	3
0	27873	20	3
0	27874	20	3
0	27875	20	3
0	27876	20	3
0	27877	20	3
0	27878	20	3
0	27919	20.05	3
0	27920	20.05	3
0	27921	20.05	3
0	27922	20.05	3
0	27959	20.1	3
0	27960	20.1	3
0	27961	20.1	3
0	27962	20.1	3
0	27963	20.1	3
0	27964	20.1	3
0	27965	20.1	3
0	27966	20.1	3
0	28012	20.15	3
0	28013	20.15	3
0	28014	20.15	3
0	28015	20.15	3
0	28048	20.2	3
0	28049	20.2	3
0	28050	20.2	3
0	28051	20.2	3
0	28052	20.2	3
0	28053	20.2	3
0	28054	20.2	3
0	28055	20.2	3
0	28096	20.25	3
0	28097	20.25	3
0	28098	20.25	3
0	28099	20.25	3
0	28132	20.3	3
0	28133	20.3	3
0	28134	20.3	3
0	28135	20.3	3
0	28136	20.3	3
0	28137	20.3	3
0	28138	20.3	3
0	28139	20.3	3
0	28180	20.35	3
0	28181	20.35	3
0	28182	20.35	3
0	28183	20.35	3
0	28422	20.4	3
0	28423	20.4	3
0	28424	20.4	3
0	28425	20.4	3
0	28426	20.4	3
0	28427	20.4	3
0	28428	20.4	3
0	28429	20.4	3
0	28603	20.45	3
0	28604	20.45	3
0	28605	20.45	3
0	28606	20.45	3
0	28639	20.5	3
0	28640	20.5	3
0	28641	20.5	3
0	28642	20.5	3
0	28643	20.5	3
0	28644	20.5	3
0	28645	20.5	3
0	28646	20.5	3
0	28687	20.55	3
0	28688	20.55	3
0	28689	20.55	3
0	28690	20.55	3
0	28723	20.6	3
0	28724	20.6	3
0	28725	20.6	3
0	28726	20.6	3
0	28727	20.6	3
0	28728	20.6	3
0	28729	20.6	3
0	28730	20.6	3
0	28771	20.65	3
0	28772	20.65	3
0	28773	20.65	3
0	28774	20.65	3
0	28807	20.7	3
0	28808	20.7	3
0	28809	20.7	3
0	28810	20.7	3
0	28811	20.7	3
0	28812	20.7	3
0	28813	20.7	3
0	28814	20.7	3
0	28855	20.75	3
0	28856	20.75	3
0	28857	20.75	3
0	28858	20.75	3
0	28891	20.8	3
0	28892	20.8	3
0	28893	20.8	3
0	28894	20.8	3
0	28895	20.8	3
0	28896	20.8	3
0	28897	20.8	3
0	28898	20.8	3
0	28939	20.85	3
0	28940	20.85	3
0	28941	20.85	3
0	28942	20.85	3
0	28975	20.9	3
0	28976	20.9	3
0	28977	20.9	3
0	28978	20.9	3
0	28979	20.9	3
0	28980	20.9	3
0	28981	20.9	3
0	28982	20.9	3
0	29227	20.95	3
0	29228	20.95	3
0	29229	20.95	3
0	29230	20.95	3
0	29335	21	3
0	29336	21	3
0	29337	21	3
0	29338	21	3
0	29339	21	3
0	29340	21	3
0	29341	21	3
0	29342	21	3
0	29383	21.05	3
0	29384	21.05	3
0	29385	21.05	3
0	29386	21.05	3
0	29423	21.1	3
0	29424	21.1	3
0	29425	21.1	3
0	29426	21.1	3
0	29427	21.1	3
0	29428	21.1	3
0	29429	21.1	3
0	29430	21.1	3
0	29476	21.15	3
0	29477	21.15	3
0	29478	21.15	3
0	29479	21.15	3
0	29512	21.2	3
0	29513	21.2	3
0	29514	21.2	3
0	29515	21.2	3
0	29516	21.2	3
0	29517	21.2	3
0	29518	21.2	3
0	29519	21.2	3
0	29560	21.25	3
0	29561	21.25	3
0	29562	21.25	3
0	29563	21.25	3
0	29596	21.3	3
0	29597	21.3	3
0	29598	21.3	3
0	29599	21.3	3
0	29600	21.3	3
0	29601	21.3	3
0	29602	21.3	3
0	29603	21.3	3
0	29644	21.35	3
0	29645	21.35	3
0	29646	21.35	3
0	29647	21.35	3
0	29680	21.4	3
0	29681	21.4	3
0	29682	21.4	3
0	29683	21.4	3
0	29684	21.4	3
0	29685	21.4	3
0	29686	21.4	3
0	29687	21.4	3
0	29728	21.45	3
0	29729	21.45	3
0	29730	21.45	3
0	29731	21.45	3
0	29970	21.5	3
0	29971	21.5	3
0	29972	21.5	3
0	29973	21.5	3
0	29974	21.5	3
0	29975	21.5	3
0	29976	21.5	3
0	29977	21.5	3
0	30151	21.55	3
0	30152	21.55	3
0	30153	21.55	3
0	30154	21.55	3
0	30187	21.6	3
0	30188	21.6	3
0	30189	21.6	3
0	30190	21.6	3
0	30191	21.6	3
0	30192	21.6	3
0	30193	21.6	3
0	30194	21.6	3
0	30235	21.65	3
0	30236	21.65	3
0	30237	21.65	3
0	30238	21.65	3
0	30271	21.7	3
0	30272	21.7	3
0	30273	21.7	3
0	30274	21.7	3
0	30275	21.7	3
0	30276	21.7	3
0	30277	21.7	3
0	30278	21.7	3
0	30319	21.75	3
0	30320	21.75	3
0	30321	21.75	3
0	30322	21.75	3
0	30355	21.8	3
0	30356	21.8	3
0	30357	21.8	3
0	30358	21.8	3
0	30359	21.8	3
0	30360	21.8	3
0	30361	21.8	3
0	30362	21.8	3
0	30403	21.85	3
0	30404	21.85	3
0	30405	21.85	3
0	30406	21.85	3
0	30439	21.9	3
0	30440	21.9	3
0	30441	21.9	3
0	30442	21.9	3
0	30443	21.9	3
0	30444	21.9	3
0	30445	21.9	3
0	30446	21.9	3
0	30487	21.95	3
0	30488	21.95	3
0	30489	21.95	3
0	30490	21.95	3
0	30523	22	3
0	30524	22	3
0	30525	22	3
0	30526	22	3
0	30527	22	3
0	30528	22	3
0	30529	22	3
0	30530	22	3
0	30775	22.05	3
0	30776	22.05	3
0	30777	22.05	3
0	30778	22.05	3
0	30887	22.1	3
0	30888	22.1	3
0	30889	22.1	3
0	30890	22.1	3
0	30891	22.1	3
0	30892	22.1	3
0	30893	22.1	3
0	30894	22.1	3
0	30940	22.15	3
0	30941	22.15	3
0	30942	22.15	3
0	30943	22.15	3
0	30976	22.2	3
0	30977	22.2	3
0	30978	22.2	3
0	30979	22.2	3
0	30980	22.2	3
0	30981	22.2	3
0	30982	22.2	3
0	30983	22.2	3
0	31024	22.25	3
0	31025	22.25	3
0	31026	22.25	3
0	31027	22.25	3
0	31060	22.3	3
0	31061	22.3	3
0	31062	22.3	3
0	31063	22.3	3
0	31064	22.3	3
0	31065	22.3	3
0	31066	22.3	3
0	31067	22.3	3
0	31108	22.35	3
0	31109	22.35	3
0	31110	22.35	3
0	31111	22.35	3
0	31144	22.4	3
0	31145	22.4	3
0	31146	22.4	3
0	31147	22.4	3
0	31148	22.4	3
0	31149	22.4	3
0	31150	22.4	3
0	31151	22.4	3
0	31192	22.45	3
0	31193	22.45	3
0	31194	22.45	3
0	31195	22.45	3
0	31228	22.5	3
0	31229	22.5	3
0	31230	22.5	3
0	31231	22.5	3
0	31232	22.5	3
0	31233	22.5	3
0	31234	22.5	3
0	31235	22.5	3
0	31276	22.55	3
0	31277	22.55	3
0	31278	22.55	3
0	31279	22.55	3
0	31518	22.6	3
0	31519	22.6	3
0	31520	22.6	3
0	31521	22.6	3
0	31522	22.6	3
0	31523	22.6	3
0	31524	22.6	3
0	31525	22.6	3
0	31699	22.65	3
0	31700	22.65	3
0	31701	22.65	3
0	31702	22.65	3
0	31735	22.7	3
0	31736	22.7	3
0	31737	22.7	3
0	31738	22.7	3
0	31739	22.7	3
0	31740	22.7	3
0	31741	22.7	3
0	31742	22.7	3
0	31783	22.75	3
0	31784	22.75	3
0	31785	22.75	3
0	31786	22.75	3
0	31819	22.8	3
0	31820	22.8	3
0	31821	22.8	3
0	31822	22.8	3
0	31823	22.8	3
0	31824	22.8	3
0	31825	22.8	3
0	31826	22.8	3
0	31867	22.85	3
0	31868	22.85	3
0	31869	22.85	3
0	31870	22.85	3
0	31903	22.9	3
0	31904	22.9	3
0	31905	22.9	3
0	31906	22.9	3
0	31907	22.9	3
0	31908	22.9	3
0	31909	22.9	3
0	31910	22.9	3
0	31951	22.95	3
0	31952	22.95	3
0	31953	22.95	3
0	31954	22.95	3
0	31987	23	3
0	31988	23	3
0	31989	23	3
0	31990	23	3
0	31991	23	3
0	31992	23	3
0	31993	23	3
0	31994	23	3
0	32035	23.05	3
0	32036	23.05	3
0	32037	23.05	3
0	32038	23.05	3
0	32075	23.1	3
0	32076	23.1	3
0	32077	23.1	3
0	32078	23.1	3
0	32079	23.1	3
0	32080	23.1	3
0	32081	23.1	3
0	32082	23.1	3
0	32334	23.15	3
0	32335	23.15	3
0	32336	23.15	3
0	32337	23.15	3
0	32503	23.2	3
0	32504	23.2	3
0	32505	23.2	3
0	32506	23.2	3
0	32507	23.2	3
0	32508	23.2	3
0	32509	23.2	3
0	32510	23.2	3
0	32551	23.25	3
0	32552	23.25	3
0	32553	23.25	3
0	32554	23.25	3
0	32587	23.3	3
0	32588	23.3	3
0	32589	23.3	3
0	32590	23.3	3
0	32591	23.3	3
0	32592	23.3	3
0	32593	23.3	3
0	32594	23.3	3
0	32635	23.35	3
0	32636	23.35	3
0	32637	23.35	3
0	32638	23.35	3
0	32671	23.4	3
0	32672	23.4	3
0	32673	23.4	3
0	32674	23.4	3
0	32675	23.4	3
0	32676	23.4	3
0	32677	23.4	3
0	32678	23.4	3
0	32719	23.45	3
0	32720	23.45	3
0	32721	23.45	3
0	32722	23.45	3
0	32758	23.5	3
0	32759	23.5	3
0	32760	23.5	3
0	32761	23.5	3
0	32762	23.5	3
0	32763	23.5	3
0	32764	23.5	3
0	32765	23.5	3
0	32806	23.55	3
0	32807	23.55	3
0	32808	23.55	3
0	32809	23.55	3
0	32842	23.6	3
0	32843	23.6	3
0	32844	23.6	3
0	32845	23.6	3
0	32846	23.6	3
0	32847	23.6	3
0	32848	23.6	3
0	32849	23.6	3
0	32890	23.65	3
0	32891	23.65	3
0	32892	23.65	3
0	32893	23.65	3
0	33130	23.7	3
0	33131	23.7	3
0	33132	23.7	3
0	33133	23.7	3
0	33134	23.7	3
0	33135	23.7	3
0	33136	23.7	3
0	33137	23.7	3
0	33250	23.75	3
0	33251	23.75	3
0	33252	23.75	3
0	33253	23.75	3
0	33286	23.8	3
0	33287	23.8	3
0	33288	23.8	3
0	33289	23.8	3
0	33290	23.8	3
0	33291	23.8	3
0	33292	23.8	3
0	33293	23.8	3
0	33334	23.85	3
0	33335	23.85	3
0	33336	23.85	3
0	33337	23.85	3
0	33370	23.9	3
0	33371	23.9	3
0	33372	23.9	3
0	33373	23.9	3
0	33374	23.9	3
0	33375	23.9	3
0	33376	23.9	3
0	33377	23.9	3
0	33418	23.95	3
0	33419	23.95	3
0	33420	23.95	3
0	33421	23.95	3
0	33454	24	3
0	33455	24	3
0	33456	24	3
0	33457	24	3
0	33458	24	3
0	33459	24	3
0	33460	24	3
0	33461	24	3
0	33502	24.05	3
0	33503	24.05	3
0	33504	24.05	3
0	33505	24.05	3
0	33542	24.1	3
0	33543	24.1	3
0	33544	24.1	3
0	33545	24.1	3
0	33546	24.1	3
0	33547	24.1	3
0	33548	24.1	3
0	33549	24.1	3
0	33595	24.15	3
0	33596	24.15	3
0	33597	24.15	3
0	33598	24.15	3
0	33631	24.2	3
0	33632	24.2	3
0	33633	24.2	3
0	33634	24.2	3
0	33635	24.2	3
0	33636	24.2	3
0	33637	24.2	3
0	33638	24.2	3
0	33885	24.25	3
0	33886	24.25	3
0	33887	24.25	3
0	33888	24.25	3
0	34054	24.3	3
0	34055	24.3	3
0	34056	24.3	3
0	34057	24.3	3
0	34058	24.3	3
0	34059	24.3	3
0	34060	24.3	3
0	34061	24.3	3
0	34102	24.35	3
0	34103	24.35	3
0	34104	24.35	3
0	34105	24.35	3
0	34138	24.4	3
0	34139	24.4	3
0	34140	24.4	3
0	34141	24.4	3
0	34142	24.4	3
0	34143	24.4	3
0	34144	24.4	3
0	34145	24.4	3
0	34186	24.45	3
0	34187	24.45	3
0	34188	24.45	3
0	34189	24.45	3
0	34223	24.5	3
0	34224	24.5	3
0	34225	24.5	3
0	34226	24.5	3
0	34227	24.5	3
0	34228	24.5	3
0	34229	24.5	3
0	34230	24.5	3
0	34271	24.55	3
0	34272	24.55	3
0	34273	24.55	3
0	34274	24.55	3
0	34307	24.6	3
0	34308	24.6	3
0	34309	24.6	3
0	34310	24.6	3
0	34311	24.6	3
0	34312	24.6	3
0	34313	24.6	3
0	34314	24.6	3
0	34355	24.65	3
0	34356	24.65	3
0	34357	24.65	3
0	34358	24.65	3
0	34391	24.7	3
0	34392	24.7	3
0	34393	24.7	3
0	34394	24.7	3
0	34395	24.7	3
0	34396	24.7	3
0	34397	24.7	3
0	34398	24.7	3
0	34439	24.75	3
0	34440	24.75	3
0	34441	24.75	3
0	34442	24.75	3
0	34679	24.8	3
0	34680	24.8	3
0	34681	24.8	3
0	34682	24.8	3
0	34683	24.8	3
0	34684	24.8	3
0	34685	24.8	3
0	34686	24.8	3
0	34799	24.85	3
0	34800	24.85	3
0	34801	24.85	3
0	34802	24.85	3
0	34835	24.9	3
0	34836	24.9	3
0	34837	24.9	3
0	34838	24.9	3
0	34839	24.9	3
0	34840	24.9	3
0	34841	24.9	3
0	34842	24.9	3
0	34883	24.95	3
0	34884	24.95	3
0	34885	24.95	3
0	34886	24.95	3
0	34919	25	3
0	34920	25	3
0	34921	25	3
0	34922	25	3
0	34923	25	3
0	34924	25	3
0	34925	25	3
0	34926	25	3
0	34967	25.05	3
0	34968	25.05	3
0	34969	25.05	3
0	34970	25.05	3
0	35007	25.1	3
0	35008	25.1	3
0	35009	25.1	3
0	35010	25.1	3
0	35011	25.1	3
0	35012	25.1	3
0	35013	25.1	3
0	35014	25.1	3
0	35060	25.15	3
0	35061	25.15	3
0	35062	25.15	3
0	35063	25.15	3
0	35096	25.2	3
0	35097	25.2	3
0	35098	25.2	3
0	35099	25.2	3
0	35100	25.2	3
0	35101	25.2	3
0	35102	25.2	3
0	35103	25.2	3
0	35144	25.25	3
0	35145	25.25	3
0	35146	25.25	3
0	35147	25.25	3
0	35180	25.3	3
0	35181	25.3	3
0	35182	25.3	3
0	35183	25.3	3
0	35184	25.3	3
0	35185	25.3	3
0	35186	25.3	3
0	35187	25.3	3
0	35434	25.35	3
0	35435	25.35	3
0	35436	25.35	3
0	35437	25.35	3
0	35603	25.4	3
0	35604	25.4	3
0	35605	25.4	3
0	35606	25.4	3
0	35607	25.4	3
0	35608	25.4	3
0	35609	25.4	3
0	35610	25.4	3
0	35651	25.45	3
0	35652	25.45	3
0	35653	25.45	3
0	35654	25.45	3
0	35687	25.5	3
0	35688	25.5	3
0	35689	25.5	3
0	35690	25.5	3
0	35691	25.5	3
0	35692	25.5	3
0	35693	25.5	3
0	35694	25.5	3
0	35735	25.55	3
0	35736	25.55	3
0	35737	25.55	3
0	35738	25.55	3
0	35771	25.6	3
0	35772	25.6	3
0	35773	25.6	3
0	35774	25.6	3
0	35775	25.6	3
0	35776	25.6	3
0	35777	25.6	3
0	35778	25.6	3
0	35819	25.65	3
0	35820	25.65	3
0	35821	25.65	3
0	35822	25.65	3
0	35855	25.7	3
0	35856	25.7	3
0	35857	25.7	3
0	35858	25.7	3
0	35859	25.7	3
0	35860	25.7	3
0	35861	25.7	3
0	35862	25.7	3
0	35903	25.75	3
0	35904	25.75	3
0	35905	25.75	3
0	35906	25.75	3
0	35939	25.8	3
0	35940	25.8	3
0	35941	25.8	3
0	35942	25.8	3
0	35943	25.8	3
0	35944	25.8	3
0	35945	25.8	3
0	35946	25.8	3
0	35987	25.85	3
0	35988	25.85	3
0	35989	25.85	3
0	35990	25.85	3
0	36227	25.9	3
0	36228	25.9	3
0	36229	25.9	3
0	36230	25.9	3
0	36231	25.9	3
0	36232	25.9	3
0	36233	25.9	3
0	36234	25.9	3
0	36347	25.95	3
0	36348	25.95	3
0	36349	25.95	3
0	36350	25.95	3
0	36383	26	3
0	36384	26	3
0	36385	26	3
0	36386	26	3
0	36387	26	3
0	36388	26	3
0	36389	26	3
0	36390	26	3
0	36431	26.05	3
0	36432	26.05	3
0	36433	26.05	3
0	36434	26.05	3
0	36471	26.1	3
0	36472	26.1	3
0	36473	26.1	3
0	36474	26.1	3
0	36475	26.1	3
0	36476	26.1	3
0	36477	26.1	3
0	36478	26.1	3
0	36524	26.15	3
0	36525	26.15	3
0	36526	26.15	3
0	36527	26.15	3
0	36560	26.2	3
0	36561	26.2	3
0	36562	26.2	3
0	36563	26.2	3
0	36564	26.2	3
0	36565	26.2	3
0	36566	26.2	3
0	36567	26.2	3
0	36608	26.25	3
0	36609	26.25	3
0	36610	26.25	3
0	36611	26.25	3
0	36644	26.3	3
0	36645	26.3	3
0	36646	26.3	3
0	36647	26.3	3
0	36648	26.3	3
0	36649	26.3	3
0	36650	26.3	3
0	36651	26.3	3
0	36692	26.35	3
0	36693	26.35	3
0	36694	26.35	3
0	36695	26.35	3
0	36728	26.4	3
0	36729	26.4	3
0	36730	26.4	3
0	36731	26.4	3
0	36732	26.4	3
0	36733	26.4	3
0	36734	26.4	3
0	36735	26.4	3
0	36982	26.45	3
0	36983	26.45	3
0	36984	26.45	3
0	36985	26.45	3
0	37151	26.5	3
0	37152	26.5	3
0	37153	26.5	3
0	37154	26.5	3
0	37155	26.5	3
0	37156	26.5	3
0	37157	26.5	3
0	37158	26.5	3
0	37199	26.55	3
0	37200	26.55	3
0	37201	26.55	3
0	37202	26.55	3
0	37235	26.6	3
0	37236	26.6	3
0	37237	26.6	3
0	37238	26.6	3
0	37239	26.6	3
0	37240	26.6	3
0	37241	26.6	3
0	37242	26.6	3
0	37283	26.65	3
0	37284	26.65	3
0	37285	26.65	3
0	37286	26.65	3
0	37319	26.7	3
0	37320	26.7	3
0	37321	26.7	3
0	37322	26.7	3
0	37323	26.7	3
0	37324	26.7	3
0	37325	26.7	3
0	37326	26.7	3
0	37367	26.75	3
0	37368	26.75	3
0	37369	26.75	3
0	37370	26.75	3
0	37403	26.8	3
0	37404	26.8	3
0	37405	26.8	3
0	37406	26.8	3
0	37407	26.8	3
0	37408	26.8	3
0	37409	26.8	3
0	37410	26.8	3
0	37451	26.85	3
0	37452	26.85	3
0	37453	26.85	3
0	37454	26.85	3
0	37487	26.9	3
0	37488	26.9	3
0	37489	26.9	3
0	37490	26.9	3
0	37491	26.9	3
0	37492	26.9	3
0	37493	26.9	3
0	37494	26.9	3
0	37535	26.95	3
0	37536	26.95	3
0	37537	26.95	3
0	37538	26.95	3
0	37775	27	3
0	37776	27	3
0	37777	27	3
0	37778	27	3
0	37779	27	3
0	37780	27	3
0	37781	27	3
0	37782	27	3
0	37895	27.05	3
0	37896	27.05	3
0	37897	27.05	3
0	37898	27.05	3
0	37935	27.1	3
0	37936	27.1	3
0	37937	27.1	3
0	37938	27.1	3
0	37939	27.1	3
0	37940	27.1	3
0	37941	27.1	3
0	37942	27.1	3
0	37988	27.15	3
0	37989	27.15	3
0	37990	27.15	3
0	37991	27.15	3
0	38024	27.2	3
0	38025	27.2	3
0	38026	27.2	3
0	38027	27.2	3
0	38028	27.2	3
0	38029	27.2	3
0	38030	27.2	3
0	38031	27.2	3
0	38072	27.25	3
0	38073	27.25	3
0	38074	27.25	3
0	38075	27.25	3
0	38108	27.3	3
0	38109	27.3	3
0	38110	27.3	3
0	38111	27.3	3
0	38112	27.3	3
0	38113	27.3	3
0	38114	27.3	3
0	38115	27.3	3
0	38156	27.35	3
0	38157	27.35	3
0	38158	27.35	3
0	38159	27.35	3
0	38192	27.4	3
0	38193	27.4	3
0	38194	27.4	3
0	38195	27.4	3
0	38196	27.4	3
0	38197	27.4	3
0	38198	27.4	3
0	38199	27.4	3
0	38240	27.45	3
0	38241	27.45	3
0	38242	27.45	3
0	38243	27.45	3
0	38276	27.5	3
0	38277	27.5	3
0	38278	27.5	3
0	38279	27.5	3
0	38280	27.5	3
0	38281	27.5	3
0	38282	27.5	3
0	38283	27.5	3
0	38530	27.55	3
0	38531	27.55	3
0	38532	27.55	3
0	38533	27.55	3
0	38699	27.6	3
0	38700	27.6	3
0	38701	27.6	3
0	38702	27.6	3
0	38703	27.6	3
0	38704	27.6	3
0	38705	27.6	3
0	38706	27.6	3
0	38747	27.65	3
0	38748	27.65	3
0	38749	27.65	3
0	38750	27.65	3
0	38783	27.7	3
0	38784	27.7	3
0	38785	27.7	3
0	38786	27.7	3
0	38787	27.7	3
0	38788	27.7	3
0	38789	27.7	3
0	38790	27.7	3
0	38831	27.75	3
0	38832	27.75	3
0	38833	27.75	3
0	38834	27.75	3
0	38867	27.8	3
0	38868	27.8	3
0	38869	27.8	3
0	38870	27.8	3
0	38871	27.8	3
0	38872	27.8	3
0	38873	27.8	3
0	38874	27.8	3
0	38915	27.85	3
0	38916	27.85	3
0	38917	27.85	3
0	38918	27.85	3
0	38951	27.9	3
0	38952	27.9	3
0	38953	27.9	3
0	38954	27.9	3
0	38955	27.9	3
0	38956	27.9	3
0	38957	27.9	3
0	38958	27.9	3
0	38999	27.95	3
0	39000	27.95	3
0	39001	27.95	3
0	39002	27.95	3
0	39035	28	3
0	39036	28	3
0	39037	28	3
0	39038	28	3
0	39039	28	3
0	39040	28	3
0	39041	28	3
0	39042	28	3
0	39083	28.05	3
0	39084	28.05	3
0	39085	28.05	3
0	39086	28.05	3
0	39327	28.1	3
0	39328	28.1	3
0	39329	28.1	3
0	39330	28.1	3
0	39331	28.1	3
0	39332	28.1	3
0	39333	28.1	3
0	39334	28.1	3
0	39494	28.15	3
0	39495	28.15	3
0	39496	28.15	3
0	39497	28.15	3
0	39530	28.2	3
0	39531	28.2	3
0	39532	28.2	3
0	39533	28.2	3
0	39534	28.2	3
0	39535	28.2	3
0	39536	28.2	3
0	39537	28.2	3
0	39578	28.25	3
0	39579	28.25	3
0	39580	28.25	3
0	39581	28.25	3
0	39614	28.3	3
0	39615	28.3	3
0	39616	28.3	3
0	39617	28.3	3
0	39618	28.3	3
0	39619	28.3	3
0	39620	28.3	3
0	39621	28.3	3
0	39662	28.35	3
0	39663	28.35	3
0	39664	28.35	3
0	39665	28.35	3
0	39698	28.4	3
0	39699	28.4	3
0	39700	28.4	3
0	39701	28.4	3
0	39702	28.4	3
0	39703	28.4	3
0	39704	28.4	3
0	39705	28.4	3
0	39746	28.45	3
0	39747	28.45	3
0	39748	28.45	3
0	39749	28.45	3
0	39785	28.5	3
0	39786	28.5	3
0	39787	28.5	3
0	39788	28.5	3
0	39789	28.5	3
0	39790	28.5	3
0	39791	28.5	3
0	39792	28.5	3
0	39833	28.55	3
0	39834	28.55	3
0	39835	28.55	3
0	39836	28.55	3
0	39869	28.6	3
0	39870	28.6	3
0	39871	28.6	3
0	39872	28.6	3
0	39873	28.6	3
0	39874	28.6	3
0	39875	28.6	3
0	39876	28.6	3
0	40123	28.65	3
0	40124	28.65	3
0	40125	28.65	3
0	40126	28.65	3
0	40250	28.7	3
0	40251	28.7	3
0	40252	28.7	3
0	40253	28.7	3
0	40254	28.7	3
0	40255	28.7	3
0	40256	28.7	3
0	40257	28.7	3
0	40298	28.75	3
0	40299	28.75	3
0	40300	28.75	3
0	40301	28.75	3
0	40334	28.8	3
0	40335	28.8	3
0	40336	28.8	3
0	40337	28.8	3
0	40338	28.8	3
0	40339	28.8	3
0	40340	28.8	3
0	40341	28.8	3
0	40382	28.85	3
0	40383	28.85	3
0	40384	28.85	3
0	40385	28.85	3
0	40418	28.9	3
0	40419	28.9	3
0	40420	28.9	3
0	40421	28.9	3
0	40422	28.9	3
0	40423	28.9	3
0	40424	28.9	3
0	40425	28.9	3
0	40466	28.95	3
0	40467	28.95	3
0	40468	28.95	3
0	40469	28.95	3
0	40502	29	3
0	40503	29	3
0	40504	29	3
0	40505	29	3
0	40506	29	3
0	40507	29	3
0	40508	29	3
0	40509	29	3
0	40550	29.05	3
0	40551	29.05	3
0	40552	29.05	3
0	40553	29.05	3
0	40590	29.1	3
0	40591	29.1	3
0	40592	29.1	3
0	40593	29.1	3
0	40594	29.1	3
0	40595	29.1	3
0	40596	29.1	3
0	40597	29.1	3
0	40643	29.15	3
0	40644	29.15	3
0	40645	29.15	3
0	40646	29.15	3
0	40885	29.2	3
0	40886	29.2	3
0	40887	29.2	3
0	40888	29.2	3
0	40889	29.2	3
0	40890	29.2	3
0	40891	29.2	3
0	40892	29.2	3
0	41066	29.25	3
0	41067	29.25	3
0	41068	29.25	3
0	41069	29.25	3
0	41102	29.3	3
0	41103	29.3	3
0	41104	29.3	3
0	41105	29.3	3
0	41106	29.3	3
0	41107	29.3	3
0	41108	29.3	3
0	41109	29.3	3
0	41150	29.35	3
0	41151	29.35	3
0	41152	29.35	3
0	41153	29.35	3
0	41186	29.4	3
0	41187	29.4	3
0	41188	29.4	3
0	41189	29.4	3
0	41190	29.4	3
0	41191	29.4	3
0	41192	29.4	3
0	41193	29.4	3
0	41234	29.45	3
0	41235	29.45	3
0	41236	29.45	3
0	41237	29.45	3
0	41271	29.5	3
0	41272	29.5	3
0	41273	29.5	3
0	41274	29.5	3
0	41275	29.5	3
0	41276	29.5	3
0	41277	29.5	3
0	41278	29.5	3
0	41319	29.55	3
0	41320	29.55	3
0	41321	29.55	3
0	41322	29.55	3
0	41355	29.6	3
0	41356	29.6	3
0	41357	29.6	3
0	41358	29.6	3
0	41359	29.6	3
0	41360	29.6	3
0	41361	29.6	3
0	41362	29.6	3
0	41403	29.65	3
0	41404	29.65	3
0	41405	29.65	3
0	41406	29.65	3
0	41439	29.7	3
0	41440	29.7	3
0	41441	29.7	3
0	41442	29.7	3
0	41443	29.7	3
0	41444	29.7	3
0	41445	29.7	3
0	41446	29.7	3
0	41691	29.75	3
0	41692	29.75	3
0	41693	29.75	3
0	41694	29.75	3
0	41799	29.8	3
0	41800	29.8	3
0	41801	29.8	3
0	41802	29.8	3
0	41803	29.8	3
0	41804	29.8	3
0	41805	29.8	3
0	41806	29.8	3
0	41847	29.85	3
0	41848	29.85	3
0	41849	29.85	3
0	41850	29.85	3
0	41883	29.9	3
0	41884	29.9	3
0	41885	29.9	3
0	41886	29.9	3
0	41887	29.9	3
0	41888	29.9	3
0	41889	29.9	3
0	41890	29.9	3
0	41931	29.95	3
0	41932	29.95	3
0	41933	29.95	3
0	41934	29.95	3
0	41967	30	3
0	41968	30	3
0	41969	30	3
0	41970	30	3
0	41971	30	3
0	41972	30	3
0	41973	30	3
0	41974	30	3
0	42015	30.05	3
0	42016	30.05	3
0	42017	30.05	3
0	42018	30.05	3
0	42055	30.1	3
0	42056	30.1	3
0	42057	30.1	3
0	42058	30.1	3
0	42059	30.1	3
0	42060	30.1	3
0	42061	30.1	3
0	42062	30.1	3
0	42108	30.15	3
0	42109	30.15	3
0	42110	30.15	3
0	42111	30.15	3
0	42144	30.2	3
0	42145	30.2	3
0	42146	30.2	3
0	42147	30.2	3
0	42148	30.2	3
0	42149	30.2	3
0	42150	30.2	3
0	42151	30.2	3
0	42192	30.25	3
0	42193	30.25	3
0	42194	30.25	3
0	42195	30.25	3
0	42434	30.3	3
0	42435	30.3	3
0	42436	30.3	3
0	42437	30.3	3
0	42438	30.3	3
0	42439	30.3	3
0	42440	30.3	3
0	42441	30.3	3
0	42615	30.35	3
0	42616	30.35	3
0	42617	30.35	3
0	42618	30.35	3
0	42651	30.4	3
0	42652	30.4	3
0	42653	30.4	3
0	42654	30.4	3
0	42655	30.4	3
0	42656	30.4	3
0	42657	30.4	3
0	42658	30.4	3
0	42699	30.45	3
0	42700	30.45	3
0	42701	30.45	3
0	42702	30.45	3
0	42735	30.5	3
0	42736	30.5	3
0	42737	30.5	3
0	42738	30.5	3
0	42739	30.5	3
0	42740	30.5	3
0	42741	30.5	3
0	42742	30.5	3
0	42783	30.55	3
0	42784	30.55	3
0	42785	30.55	3
0	42786	30.55	3
0	42819	30.6	3
0	42820	30.6	3
0	42821	30.6	3
0	42822	30.6	3
0	42823	30.6	3
0	42824	30.6	3
0	42825	30.6	3
0	42826	30.6	3
0	42867	30.65	3
0	42868	30.65	3
0	42869	30.65	3
0	42870	30.65	3
0	42903	30.7	3
0	42904	30.7	3
0	42905	30.7	3
0	42906	30.7	3
0	42907	30.7	3
0	42908	30.7	3
0	42909	30.7	3
0	42910	30.7	3
0	42951	30.75	3
0	42952	30.75	3
0	42953	30.75	3
0	42954	30.75	3
0	42987	30.8	3
0	42988	30.8	3
0	42989	30.8	3
0	42990	30.8	3
0	42991	30.8	3
0	42992	30.8	3
0	42993	30.8	3
0	42994	30.8	3
0	43239	30.85	3
0	43240	30.85	3
0	43241	30.85	3
0	43242	30.85	3
0	43347	30.9	3
0	43348	30.9	3
0	43349	30.9	3
0	43350	30.9	3
0	43351	30.9	3
0	43352	30.9	3
0	43353	30.9	3
0	43354	30.9	3
0	43395	30.95	3
0	43396	30.95	3
0	43397	30.95	3
0	43398	30.95	3
0	43431	31	3
0	43432	31	3
0	43433	31	3
0	43434	31	3
0	43435	31	3
0	43436	31	3
0	43437	31	3
0	43438	31	3
0	43479	31.05	3
0	43480	31.05	3
0	43481	31.05	3
0	43482	31.05	3
0	43519	31.1	3
0	43520	31.1	3
0	43521	31.1	3
0	43522	31.1	3
0	43523	31.1	3
0	43524	31.1	3
0	43525	31.1	3
0	43526	31.1	3
0	43572	31.15	3
0	43573	31.15	3
0	43574	31.15	3
0	43575	31.15	3
0	43608	31.2	3
0	43609	31.2	3
0	43610	31.2	3
0	43611	31.2	3
0	43612	31.2	3
0	43613	31.2	3
0	43614	31.2	3
0	43615	31.2	3
0	43656	31.25	3
0	43657	31.25	3
0	43658	31.25	3
0	43659	31.25	3
0	43692	31.3	3
0	43693	31.3	3
0	43694	31.3	3
0	43695	31.3	3
0	43696	31.3	3
0	43697	31.3	3
0	43698	31.3	3
0	43699	31.3	3
0	43740	31.35	3
0	43741	31.35	3
0	43742	31.35	3
0	43743	31.35	3
0	43982	31.4	3
0	43983	31.4	3
0	43984	31.4	3
0	43985	31.4	3
0	43986	31.4	3
0	43987	31.4	3
0	43988	31.4	3
0	43989	31.4	3
0	44163	31.45	3
0	44164	31.45	3
0	44165	31.45	3
0	44166	31.45	3
0	44199	31.5	3
0	44200	31.5	3
0	44201	31.5	3
0	44202	31.5	3
0	44203	31.5	3
0	44204	31.5	3
0	44205	31.5	3
0	44206	31.5	3
0	44247	31.55	3
0	44248	31.55	3
0	44249	31.55	3
0	44250	31.55	3
0	44283	31.6	3
0	44284	31.6	3
0	44285	31.6	3
0	44286	31.6	3
0	44287	31.6	3
0	44288	31.6	3
0	44289	31.6	3
0	44290	31.6	3
0	44331	31.65	3
0	44332	31.65	3
0	44333	31.65	3
0	44334	31.65	3
0	44367	31.7	3
0	44368	31.7	3
0	44369	31.7	3
0	44370	31.7	3
0	44371	31.7	3
0	44372	31.7	3
0	44373	31.7	3
0	44374	31.7	3
0	44415	31.75	3
0	44416	31.75	3
0	44417	31.75	3
0	44418	31.75	3
0	44451	31.8	3
0	44452	31.8	3
0	44453	31.8	3
0	44454	31.8	3
0	44455	31.8	3
0	44456	31.8	3
0	44457	31.8	3
0	44458	31.8	3
0	44499	31.85	3
0	44500	31.85	3
0	44501	31.85	3
0	44502	31.85	3
0	44535	31.9	3
0	44536	31.9	3
0	44537	31.9	3
0	44538	31.9	3
0	44539	31.9	3
0	44540	31.9	3
0	44541	31.9	3
0	44542	31.9	3
0	44787	31.95	3
0	44788	31.95	3
0	44789	31.95	3
0	44790	31.95	3
0	44895	32	3
0	44896	32	3
0	44897	32	3
0	44898	32	3
0	44899	32	3
0	44900	32	3
0	44901	32	3
0	44902	32	3
0	44943	32.05	3
0	44944	32.05	3
0	44945	32.05	3
0	44946	32.05	3
0	44983	32.1	3
0	44984	32.1	3
0	44985	32.1	3
0	44986	32.1	3
0	44987	32.1	3
0	44988	32.1	3
0	44989	32.1	3
0	44990	32.1	3
0	45036	32.15	3
0	45037	32.15	3
0	45038	32.15	3
0	45039	32.15	3
0	45072	32.2	3
0	45073	32.2	3
0	45074	32.2	3
0	45075	32.2	3
0	45076	32.2	3
0	45077	32.2	3
0	45078	32.2	3
0	45079	32.2	3
0	45120	32.25	3
0	45121	32.25	3
0	45122	32.25	3
0	45123	32.25	3
0	45156	32.3	3
0	45157	32.3	3
0	45158	32.3	3
0	45159	32.3	3
0	45160	32.3	3
0	45161	32.3	3
0	45162	32.3	3
0	45163	32.3	3
0	45204	32.35	3
0	45205	32.35	3
0	45206	32.35	3
0	45207	32.35	3
0	45240	32.4	3
0	45241	32.4	3
0	45242	32.4	3
0	45243	32.4	3
0	45244	32.4	3
0	45245	32.4	3
0	45246	32.4	3
0	45247	32.4	3
0	45288	32.45	3
0	45289	32.45	3
0	45290	32.45	3
0	45291	32.45	3
0	45530	32.5	3
0	45531	32.5	3
0	45532	32.5	3
0	45533	32.5	3
0	45534	32.5	3
0	45535	32.5	3
0	45536	32.5	3
0	45537	32.5	3
0	45711	32.55	3
0	45712	32.55	3
0	45713	32.55	3
0	45714	32.55	3
0	45747	32.6	3
0	45748	32.6	3
0	45749	32.6	3
0	45750	32.6	3
0	45751	32.6	3
0	45752	32.6	3
0	45753	32.6	3
0	45754	32.6	3
0	45795	32.65	3
0	45796	32.65	3
0	45797	32.65	3
0	45798	32.65	3
0	45831	32.7	3
0	45832	32.7	3
0	45833	32.7	3
0	45834	32.7	3
0	45835	32.7	3
0	45836	32.7	3
0	45837	32.7	3
0	45838	32.7	3
0	45879	32.75	3
0	45880	32.75	3
0	45881	32.75	3
0	45882	32.75	3
0	45915	32.8	3
0	45916	32.8	3
0	45917	32.8	3
0	45918	32.8	3
0	45919	32.8	3
0	45920	32.8	3
0	45921	32.8	3
0	45922	32.8	3
0	45963	32.85	3
0	45964	32.85	3
0	45965	32.85	3
0	45966	32.85	3
0	45999	32.9	3
0	46000	32.9	3
0	46001	32.9	3
0	46002	32.9	3
0	46003	32.9	3
0	46004	32.9	3
0	46005	32.9	3
0	46006	32.9	3
0	46047	32.95	3
0	46048	32.95	3
0	46049	32.95	3
0	46050	32.95	3
0	46083	33	3
0	46084	33	3
0	46085	33	3
0	46086	33	3
0	46087	33	3
0	46088	33	3
0	46089	33	3
0	46090	33	3
0	46335	33.05	3
0	46336	33.05	3
0	46337	33.05	3
0	46338	33.05	3
0	46447	33.1	3
0	46448	33.1	3
0	46449	33.1	3
0	46450	33.1	3
0	46451	33.1	3
0	46452	33.1	3
0	46453	33.1	3
0	46454	33.1	3
0	46500	33.15	3
0	46501	33.15	3
0	46502	33.15	3
0	46503	33.15	3
0	46536	33.2	3
0	46537	33.2	3
0	46538	33.2	3
0	46539	33.2	3
0	46540	33.2	3
0	46541	33.2	3
0	46542	33.2	3
0	46543	33.2	3
0	46584	33.25	3
0	46585	33.25	3
0	46586	33.25	3
0	46587	33.25	3
0	46620	33.3	3
0	46621	33.3	3
0	46622	33.3	3
0	46623	33.3	3
0	46624	33.3	3
0	46625	33.3	3
0	46626	33.3	3
0	46627	33.3	3
0	46668	33.35	3
0	46669	33.35	3
0	46670	33.35	3
0	46671	33.35	3
0	46704	33.4	3
0	46705	33.4	3
0	46706	33.4	3
0	46707	33.4	3
0	46708	33.4	3
0	46709	33.4	3
0	46710	33.4	3
0	46711	33.4	3
0	46752	33.45	3
0	46753	33.45	3
0	46754	33.45	3
0	46755	33.45	3
0	46791	33.5	3
0	46792	33.5	3
0	46793	33.5	3
0	46794	33.5	3
0	46795	33.5	3
0	46796	33.5	3
0	46797	33.5	3
0	46798	33.5	3
0	46839	33.55	3
0	46840	33.55	3
0	46841	33.55	3
0	46842	33.55	3
0	47081	33.6	3
0	47082	33.6	3
0	47083	33.6	3
0	47084	33.6	3
0	47085	33.6	3
0	47086	33.6	3
0	47087	33.6	3
0	47088	33.6	3
0	47262	33.65	3
0	47263	33.65	3
0	47264	33.65	3
0	47265	33.65	3
0	47298	33.7	3
0	47299	33.7	3
0	47300	33.7	3
0	47301	33.7	3
0	47302	33.7	3
0	47303	33.7	3
0	47304	33.7	3
0	47305	33.7	3
0	47346	33.75	3
0	47347	33.75	3
0	47348	33.75	3
0	47349	33.75	3
0	47382	33.8	3
0	47383	33.8	3
0	47384	33.8	3
0	47385	33.8	3
0	47386	33.8	3
0	47387	33.8	3
0	47388	33.8	3
0	47389	33.8	3
0	47430	33.85	3
0	47431	33.85	3
0	47432	33.85	3
0	47433	33.85	3
0	47466	33.9	3
0	47467	33.9	3
0	47468	33.9	3
0	47469	33.9	3
0	47470	33.9	3
0	47471	33.9	3
0	47472	33.9	3
0	47473	33.9	3
0	47514	33.95	3
0	47515	33.95	3
0	47516	33.95	3
0	47517	33.95	3
0	47550	34	3
0	47551	34	3
0	47552	34	3
0	47553	34	3
0	47554	34	3
0	47555	34	3
0	47556	34	3
0	47557	34	3
0	47598	34.05	3
0	47599	34.05	3
0	47600	34.05	3
0	47601	34.05	3
0	47638	34.1	3
0	47639	34.1	3
0	47640	34.1	3
0	47641	34.1	3
0	47642	34.1	3
0	47643	34.1	3
0	47644	34.1	3
0	47645	34.1	3
0	47897	34.15	3
0	47898	34.15	3
0	47899	34.15	3
0	47900	34.15	3
0	48066	34.2	3
0	48067	34.2	3
0	48068	34.2	3
0	48069	34.2	3
0	48070	34.2	3
0	48071	34.2	3
0	48072	34.2	3
0	48073	34.2	3
0	48114	34.25	3
0	48115	34.25	3
0	48116	34.25	3
0	48117	34.25	3
0	48150	34.3	3
0	48151	34.3	3
0	48152	34.3	3
0	48153	34.3	3
0	48154	34.3	3
0	48155	34.3	3
0	48156	34.3	3
0	48157	34.3	3
0	48198	34.35	3
0	48199	34.35	3
0	48200	34.35	3
0	48201	34.35	3
0	48234	34.4	3
0	48235	34.4	3
0	48236	34.4	3
0	48237	34.4	3
0	48238	34.4	3
0	48239	34.4	3
0	48240	34.4	3
0	48241	34.4	3
0	48282	34.45	3
0	48283	34.45	3
0	48284	34.45	3
0	48285	34.45	3
0	48319	34.5	3
0	48320	34.5	3
0	48321	34.5	3
0	48322	34.5	3
0	48323	34.5	3
0	48324	34.5	3
0	48325	34.5	3
0	48326	34.5	3
0	48367	34.55	3
0	48368	34.55	3
0	48369	34.55	3
0	48370	34.55	3
0	48403	34.6	3
0	48404	34.6	3
0	48405	34.6	3
0	48406	34.6	3
0	48407	34.6	3
0	48408	34.6	3
0	48409	34.6	3
0	48410	34.6	3
0	48451	34.65	3
0	48452	34.65	3
0	48453	34.65	3
0	48454	34.65	3
0	48691	34.7	3
0	48692	34.7	3
0	48693	34.7	3
0	48694	34.7	3
0	48695	34.7	3
0	48696	34.7	3
0	48697	34.7	3
0	48698	34.7	3
0	48811	34.75	3
0	48812	34.75	3
0	48813	34.75	3
0	48814	34.75	3
0	48847	34.8	3
0	48848	34.8	3
0	48849	34.8	3
0	48850	34.8	3
0	48851	34.8	3
0	48852	34.8	3
0	48853	34.8	3
0	48854	34.8	3
0	48895	34.85	3
0	48896	34.85	3
0	48897	34.85	3
0	48898	34.85	3
0	48931	34.9	3
0	48932	34.9	3
0	48933	34.9	3
0	48934	34.9	3
0	48935	34.9	3
0	48936	34.9	3
0	48937	34.9	3
0	48938	34.9	3
0	48979	34.95	3
0	48980	34.95	3
0	48981	34.95	3
0	48982	34.95	3
0	49015	35	3
0	49016	35	3
0	49017	35	3
0	49018	35	3
0	49019	35	3
0	49020	35	3
0	49021	35	3
0	49022	35	3
0	49063	35.05	3
0	49064	35.05	3
0	49065	35.05	3
0	49066	35.05	3
0	49103	35.1	3
0	49104	35.1	3
0	49105	35.1	3
0	49106	35.1	3
0	49107	35.1	3
0	49108	35.1	3
0	49109	35.1	3
0	49110	35.1	3
0	49156	35.15	3
0	49157	35.15	3
0	49158	35.15	3
0	49159	35.15	3
0	49192	35.2	3
0	49193	35.2	3
0	49194	35.2	3
0	49195	35.2	3
0	49196	35.2	3
0	49197	35.2	3
0	49198	35.2	3
0	49199	35.2	3
0	49446	35.25	3
0	49447	35.25	3
0	49448	35.25	3
0	49449	35.25	3
0	49615	35.3	3
0	49616	35.3	3
0	49617	35.3	3
0	49618	35.3	3
0	49619	35.3	3
0	49620	35.3	3
0	49621	35.3	3
0	49622	35.3	3
0	49663	35.35	3
0	49664	35.35	3
0	49665	35.35	3
0	49666	35.35	3
0	49699	35.4	3
0	49700	35.4	3
0	49701	35.4	3
0	49702	35.4	3
0	49703	35.4	3
0	49704	35.4	3
0	49705	35.4	3
0	49706	35.4	3
0	49747	35.45	3
0	49748	35.45	3
0	49749	35.45	3
0	49750	35.45	3
0	49783	35.5	3
0	49784	35.5	3
0	49785	35.5	3
0	49786	35.5	3
0	49787	35.5	3
0	49788	35.5	3
0	49789	35.5	3
0	49790	35.5	3
0	49831	35.55	3
0	49832	35.55	3
0	49833	35.55	3
0	49834	35.55	3
0	49867	35.6	3
0	49868	35.6	3
0	49869	35.6	3
0	49870	35.6	3
0	49871	35.6	3
0	49872	35.6	3
0	49873	35.6	3
0	49874	35.6	3
0	49915	35.65	3
0	49916	35.65	3
0	49917	35.65	3
0	49918	35.65	3
0	49951	35.7	3
0	49952	35.7	3
0	49953	35.7	3
0	49954	35.7	3
0	49955	35.7	3
0	49956	35.7	3
0	49957	35.7	3
0	49958	35.7	3
0	49999	35.75	3
0	50000	35.75	3
0	50001	35.75	3
0	50002	35.75	3
0	50239	35.8	3
0	50240	35.8	3
0	50241	35.8	3
0	50242	35.8	3
0	50243	35.8	3
0	50244	35.8	3
0	50245	35.8	3
0	50246	35.8	3
0	50359	35.85	3
0	50360	35.85	3
0	50361	35.85	3
0	50362	35.85	3
0	50395	35.9	3
0	50396	35.9	3
0	50397	35.9	3
0	50398	35.9	3
0	50399	35.9	3
0	50400	35.9	3
0	50401	35.9	3
0	50402	35.9	3
0	50443	35.95	3
0	50444	35.95	3
0	50445	35.95	3
0	50446	35.95	3
0	50479	36	3
0	50480	36	3
0	50481	36	3
0	50482	36	3
0	50483	36	3
0	50484	36	3
0	50485	36	3
0	50486	36	3
0	50527	36.05	3
0	50528	36.05	3
0	50529	36.05	3
0	50530	36.05	3
0	50567	36.1	3
0	50568	36.1	3
0	50569	36.1	3
0	50570	36.1	3
0	50571	36.1	3
0	50572	36.1	3
0	50573	36.1	3
0	50574	36.1	3
0	50620	36.15	3
0	50621	36.15	3
0	50622	36.15	3
0	50623	36.15	3
0	50656	36.2	3
0	50657	36.2	3
0	50658	36.2	3
0	50659	36.2	3
0	50660	36.2	3
0	50661	36.2	3
0	50662	36.2	3
0	50663	36.2	3
0	50704	36.25	3
0	50705	36.25	3
0	50706	36.25	3
0	50707	36.25	3
0	50740	36.3	3
0	50741	36.3	3
0	50742	36.3	3
0	50743	36.3	3
0	50744	36.3	3
0	50745	36.3	3
0	50746	36.3	3
0	50747	36.3	3
0	50994	36.35	3
0	50995	36.35	3
0	50996	36.35	3
0	50997	36.35	3
0	51163	36.4	3
0	51164	36.4	3
0	51165	36.4	3
0	51166	36.4	3
0	51167	36.4	3
0	51168	36.4	3
0	51169	36.4	3
0	51170	36.4	3
0	51211	36.45	3
0	51212	36.45	3
0	51213	36.45	3
0	51214	36.45	3
0	51247	36.5	3
0	51248	36.5	3
0	51249	36.5	3
0	51250	36.5	3
0	51251	36.5	3
0	51252	36.5	3
0	51253	36.5	3
0	51254	36.5	3
0	51295	36.55	3
0	51296	36.55	3
0	51297	36.55	3
0	51298	36.55	3
0	51331	36.6	3
0	51332	36.6	3
0	51333	36.6	3
0	51334	36.6	3
0	51335	36.6	3
0	51336	36.6	3
0	51337	36.6	3
0	51338	36.6	3
0	51379	36.65	3
0	51380	36.65	3
0	51381	36.65	3
0	51382	36.65	3
0	51415	36.7	3
0	51416	36.7	3
0	51417	36.7	3
0	51418	36.7	3
0	51419	36.7	3
0	51420	36.7	3
0	51421	36.7	3
0	51422	36.7	3
0	51463	36.75	3
0	51464	36.75	3
0	51465	36.75	3
0	51466	36.75	3
0	51499	36.8	3
0	51500	36.8	3
0	51501	36.8	3
0	51502	36.8	3
0	51503	36.8	3
0	51504	36.8	3
0	51505	36.8	3
0	51506	36.8	3
0	51547	36.85	3
0	51548	36.85	3
0	51549	36.85	3
0	51550	36.85	3
0	51787	36.9	3
0	51788	36.9	3
0	51789	36.9	3
0	51790	36.9	3
0	51791	36.9	3
0	51792	36.9	3
0	51793	36.9	3
0	51794	36.9	3
0	51907	36.95	3
0	51908	36.95	3
0	51909	36.95	3
0	51910	36.95	3
0	51943	37	3
0	51944	37	3
0	51945	37	3
0	51946	37	3
0	51947	37	3
0	51948	37	3
0	51949	37	3
0	51950	37	3
0	51991	37.05	3
0	51992	37.05	3
0	51993	37.05	3
0	51994	37.05	3
0	52031	37.1	3
0	52032	37.1	3
0	52033	37.1	3
0	52034	37.1	3
0	52035	37.1	3
0	52036	37.1	3
0	52037	37.1	3
0	52038	37.1	3
0	52084	37.15	3
0	52085	37.15	3
0	52086	37.15	3
0	52087	37.15	3
0	52120	37.2	3
0	52121	37.2	3
0	52122	37.2	3
0	52123	37.2	3
0	52124	37.2	3
0	52125	37.2	3
0	52126	37.2	3
0	52127	37.2	3
0	52168	37.25	3
0	52169	37.25	3
0	52170	37.25	3
0	52171	37.25	3
0	52204	37.3	3
0	52205	37.3	3
0	52206	37.3	3
0	52207	37.3	3
0	52208	37.3	3
0	52209	37.3	3
0	52210	37.3	3
0	52211	37.3	3
0	52252	37.35	3
0	52253	37.35	3
0	52254	37.35	3
0	52255	37.35	3
0	52288	37.4	3
0	52289	37.4	3
0	52290	37.4	3
0	52291	37.4	3
0	52292	37.4	3
0	52293	37.4	3
0	52294	37.4	3
0	52295	37.4	3
0	52542	37.45	3
0	52543	37.45	3
0	52544	37.45	3
0	52545	37.45	3
0	52711	37.5	3
0	52712	37.5	3
0	52713	37.5	3
0	52714	37.5	3
0	52715	37.5	3
0	52716	37.5	3
0	52717	37.5	3
0	52718	37.5	3
0	52759	37.55	3
0	52760	37.55	3
0	52761	37.55	3
0	52762	37.55	3
0	52795	37.6	3
0	52796	37.6	3
0	52797	37.6	3
0	52798	37.6	3
0	52799	37.6	3
0	52800	37.6	3
0	52801	37.6	3
0	52802	37.6	3
0	52843	37.65	3
0	52844	37.65	3
0	52845	37.65	3
0	52846	37.65	3
0	52879	37.7	3
0	52880	37.7	3
0	52881	37.7	3
0	52882	37.7	3
0	52883	37.7	3
0	52884	37.7	3
0	52885	37.7	3
0	52886	37.7	3
0	52927	37.75	3
0	52928	37.75	3
0	52929	37.75	3
0	52930	37.75	3
0	52963	37.8	3
0	52964	37.8	3
0	52965	37.8	3
0	52966	37.8	3
0	52967	37.8	3
0	52968	37.8	3
0	52969	37.8	3
0	52970	37.8	3
0	53011	37.85	3
0	53012	37.85	3
0	53013	37.85	3
0	53014	37.85	3
0	53047	37.9	3
0	53048	37.9	3
0	53049	37.9	3
0	53050	37.9	3
0	53051	37.9	3
0	53052	37.9	3
0	53053	37.9	3
0	53054	37.9	3
0	53095	37.95	3
0	53096	37.95	3
0	53097	37.95	3
0	53098	37.95	3
0	53335	38	3
0	53336	38	3
0	53337	38	3
0	53338	38	3
0	53339	38	3
0	53340	38	3
0	53341	38	3
0	53342	38	3
0	53455	38.05	3
0	53456	38.05	3
0	53457	38.05	3
0	53458	38.05	3
0	53495	38.1	3
0	53496	38.1	3
0	53497	38.1	3
0	53498	38.1	3
0	53499	38.1	3
0	53500	38.1	3
0	53501	38.1	3
0	53502	38.1	3
0	53548	38.15	3
0	53549	38.15	3
0	53550	38.15	3
0	53551	38.15	3
0	53584	38.2	3
0	53585	38.2	3
0	53586	38.2	3
0	53587	38.2	3
0	53588	38.2	3
0	53589	38.2	3
0	53590	38.2	3
0	53591	38.2	3
0	53632	38.25	3
0	53633	38.25	3
0	53634	38.25	3
0	53635	38.25	3
0	53668	38.3	3
0	53669	38.3	3
0	53670	38.3	3
0	53671	38.3	3
0	53672	38.3	3
0	53673	38.3	3
0	53674	38.3	3
0	53675	38.3	3
0	53716	38.35	3
0	53717	38.35	3
0	53718	38.35	3
0	53719	38.35	3
0	53752	38.4	3
0	53753	38.4	3
0	53754	38.4	3
0	53755	38.4	3
0	53756	38.4	3
0	53757	38.4	3
0	53758	38.4	3
0	53759	38.4	3
0	53800	38.45	3
0	53801	38.45	3
0	53802	38.45	3
0	53803	38.45	3
0	53839	38.5	3
0	53840	38.5	3
0	53841	38.5	3
0	53842	38.5	3
0	53843	38.5	3
0	53844	38.5	3
0	53845	38.5	3
0	53846	38.5	3
0	54093	38.55	3
0	54094	38.55	3
0	54095	38.55	3
0	54096	38.55	3
0	54262	38.6	3
0	54263	38.6	3
0	54264	38.6	3
0	54265	38.6	3
0	54266	38.6	3
0	54267	38.6	3
0	54268	38.6	3
0	54269	38.6	3
0	54310	38.65	3
0	54311	38.65	3
0	54312	38.65	3
0	54313	38.65	3
0	54346	38.7	3
0	54347	38.7	3
0	54348	38.7	3
0	54349	38.7	3
0	54350	38.7	3
0	54351	38.7	3
0	54352	38.7	3
0	54353	38.7	3
0	54394	38.75	3
0	54395	38.75	3
0	54396	38.75	3
0	54397	38.75	3
0	54430	38.8	3
0	54431	38.8	3
0	54432	38.8	3
0	54433	38.8	3
0	54434	38.8	3
0	54435	38.8	3
0	54436	38.8	3
0	54437	38.8	3
0	54478	38.85	3
0	54479	38.85	3
0	54480	38.85	3
0	54481	38.85	3
0	54514	38.9	3
0	54515	38.9	3
0	54516	38.9	3
0	54517	38.9	3
0	54518	38.9	3
0	54519	38.9	3
0	54520	38.9	3
0	54521	38.9	3
0	54562	38.95	3
0	54563	38.95	3
0	54564	38.95	3
0	54565	38.95	3
0	54598	39	3
0	54599	39	3
0	54600	39	3
0	54601	39	3
0	54602	39	3
0	54603	39	3
0	54604	39	3
0	54605	39	3
0	54646	39.05	3
0	54647	39.05	3
0	54648	39.05	3
0	54649	39.05	3
0	54890	39.1	3
0	54891	39.1	3
0	54892	39.1	3
0	54893	39.1	3
0	54894	39.1	3
0	54895	39.1	3
0	54896	39.1	3
0	54897	39.1	3
0	55057	39.15	3
0	55058	39.15	3
0	55059	39.15	3
0	55060	39.15	3
0	55093	39.2	3
0	55094	39.2	3
0	55095	39.2	3
0	55096	39.2	3
0	55097	39.2	3
0	55098	39.2	3
0	55099	39.2	3
0	55100	39.2	3
0	55141	39.25	3
0	55142	39.25	3
0	55143	39.25	3
0	55144	39.25	3
0	55177	39.3	3
0	55178	39.3	3
0	55179	39.3	3
0	55180	39.3	3
0	55181	39.3	3
0	55182	39.3	3
0	55183	39.3	3
0	55184	39.3	3
0	55225	39.35	3
0	55226	39.35	3
0	55227	39.35	3
0	55228	39.35	3
0	55261	39.4	3
0	55262	39.4	3
0	55263	39.4	3
0	55264	39.4	3
0	55265	39.4	3
0	55266	39.4	3
0	55267	39.4	3
0	55268	39.4	3
0	55309	39.45	3
0	55310	39.45	3
0	55311	39.45	3
0	55312	39.45	3
0	55346	39.5	3
0	55347	39.5	3
0	55348	39.5	3
0	55349	39.5	3
0	55350	39.5	3
0	55351	39.5	3
0	55352	39.5	3
0	55353	39.5	3
0	55394	39.55	3
0	55395	39.55	3
0	55396	39.55	3
0	55397	39.55	3
0	55430	39.6	3
0	55431	39.6	3
0	55432	39.6	3
0	55433	39.6	3
0	55434	39.6	3
0	55435	39.6	3
0	55436	39.6	3
0	55437	39.6	3
0	55684	39.65	3
0	55685	39.65	3
0	55686	39.65	3
0	55687	39.65	3
0	55811	39.7	3
0	55812	39.7	3
0	55813	39.7	3
0	55814	39.7	3
0	55815	39.7	3
0	55816	39.7	3
0	55817	39.7	3
0	55818	39.7	3
0	55859	39.75	3
0	55860	39.75	3
0	55861	39.75	3
0	55862	39.75	3
0	55895	39.8	3
0	55896	39.8	3
0	55897	39.8	3
0	55898	39.8	3
0	55899	39.8	3
0	55900	39.8	3
0	55901	39.8	3
0	55902	39.8	3
0	55943	39.85	3
0	55944	39.85	3
0	55945	39.85	3
0	55946	39.85	3
0	55979	39.9	3
0	55980	39.9	3
0	55981	39.9	3
0	55982	39.9	3
0	55983	39.9	3
0	55984	39.9	3
0	55985	39.9	3
0	55986	39.9	3
0	56027	39.95	3
0	56028	39.95	3
0	56029	39.95	3
0	56030	39.95	3
0	56063	40	3
0	56064	40	3
0	56065	40	3
0	56066	40	3
0	56067	40	3
0	56068	40	3
0	56069	40	3
0	56070	40	3
0	56111	40.05	3
0	56112	40.05	3
0	56113	40.05	3
0	56114	40.05	3
0	56151	40.1	3
0	56152	40.1	3
0	56153	40.1	3
0	56154	40.1	3
0	56155	40.1	3
0	56156	40.1	3
0	56157	40.1	3
0	56158	40.1	3
0	56204	40.15	3
0	56205	40.15	3
0	56206	40.15	3
0	56207	40.15	3
0	56446	40.2	3
0	56447	40.2	3
0	56448	40.2	3
0	56449	40.2	3
0	56450	40.2	3
0	56451	40.2	3
0	56452	40.2	3
0	56453	40.2	3
0	56627	40.25	3
0	56628	40.25	3
0	56629	40.25	3
0	56630	40.25	3
0	56663	40.3	3
0	56664	40.3	3
0	56665	40.3	3
0	56666	40.3	3
0	56667	40.3	3
0	56668	40.3	3
0	56669	40.3	3
0	56670	40.3	3
0	56711	40.35	3
0	56712	40.35	3
0	56713	40.35	3
0	56714	40.35	3
0	56747	40.4	3
0	56748	40.4	3
0	56749	40.4	3
0	56750	40.4	3
0	56751	40.4	3
0	56752	40.4	3
0	56753	40.4	3
0	56754	40.4	3
0	56795	40.45	3
0	56796	40.45	3
0	56797	40.45	3
0	56798	40.45	3
0	56831	40.5	3
0	56832	40.5	3
0	56833	40.5	3
0	56834	40.5	3
0	56835	40.5	3
0	56836	40.5	3
0	56837	40.5	3
0	56838	40.5	3
0	56879	40.55	3
0	56880	40.55	3
0	56881	40.55	3
0	56882	40.55	3
0	56915	40.6	3
0	56916	40.6	3
0	56917	40.6	3
0	56918	40.6	3
0	56919	40.6	3
0	56920	40.6	3
0	56921	40.6	3
0	56922	40.6	3
0	56963	40.65	3
0	56964	40.65	3
0	56965	40.65	3
0	56966	40.65	3
0	56999	40.7	3
0	57000	40.7	3
0	57001	40.7	3
0	57002	40.7	3
0	57003	40.7	3
0	57004	40.7	3
0	57005	40.7	3
0	57006	40.7	3
0	57251	40.75	3
0	57252	40.75	3
0	57253	40.75	3
0	57254	40.75	3
0	57359	40.8	3
0	57360	40.8	3
0	57361	40.8	3
0	57362	40.8	3
0	57363	40.8	3
0	57364	40.8	3
0	57365	40.8	3
0	57366	40.8	3
0	57407	40.85	3
0	57408	40.85	3
0	57409	40.85	3
0	57410	40.85	3
0	57443	40.9	3
0	57444	40.9	3
0	57445	40.9	3
0	57446	40.9	3
0	57447	40.9	3
0	57448	40.9	3
0	57449	40.9	3
0	57450	40.9	3
0	57491	40.95	3
0	57492	40.95	3
0	57493	40.95	3
0	57494	40.95	3
0	57527	41	3
0	57528	41	3
0	57529	41	3
0	57530	41	3
0	57531	41	3
0	57532	41	3
0	57533	41	3
0	57534	41	3
0	57575	41.05	3
0	57576	41.05	3
0	57577	41.05	3
0	57578	41.05	3
0	57615	41.1	3
0	57616	41.1	3
0	57617	41.1	3
0	57618	41.1	3
0	57619	41.1	3
0	57620	41.1	3
0	57621	41.1	3
0	57622	41.1	3
0	57668	41.15	3
0	57669	41.15	3
0	57670	41.15	3
0	57671	41.15	3
0	57704	41.2	3
0	57705	41.2	3
0	57706	41.2	3
0	57707	41.2	3
0	57708	41.2	3
0	57709	41.2	3
0	57710	41.2	3
0	57711	41.2	3
0	57752	41.25	3
0	57753	41.25	3
0	57754	41.25	3
0	57755	41.25	3
0	57994	41.3	3
0	57995	41.3	3
0	57996	41.3	3
0	57997	41.3	3
0	57998	41.3	3
0	57999	41.3	3
0	58000	41.3	3
0	58001	41.3	3
0	58175	41.35	3
0	58176	41.35	3
0	58177	41.35	3
0	58178	41.35	3
0	58211	41.4	3
0	58212	41.4	3
0	58213	41.4	3
0	58214	41.4	3
0	58215	41.4	3
0	58216	41.4	3
0	58217	41.4	3
0	58218	41.4	3
0	58259	41.45	3
0	58260	41.45	3
0	58261	41.45	3
0	58262	41.45	3
0	58295	41.5	3
0	58296	41.5	3
0	58297	41.5	3
0	58298	41.5	3
0	58299	41.5	3
0	58300	41.5	3
0	58301	41.5	3
0	58302	41.5	3
0	58343	41.55	3
0	58344	41.55	3
0	58345	41.55	3
0	58346	41.55	3
0	58379	41.6	3
0	58380	41.6	3
0	58381	41.6	3
0	58382	41.6	3
0	58383	41.6	3
0	58384	41.6	3
0	58385	41.6	3
0	58386	41.6	3
0	58427	41.65	3
0	58428	41.65	3
0	58429	41.65	3
0	58430	41.65	3
0	58463	41.7	3
0	58464	41.7	3
0	58465	41.7	3
0	58466	41.7	3
0	58467	41.7	3
0	58468	41.7	3
0	58469	41.7	3
0	58470	41.7	3
0	58511	41.75	3
0	58512	41.75	3
0	58513	41.75	3
0	58514	41.75	3
0	58547	41.8	3
0	58548	41.8	3
0	58549	41.8	3
0	58550	41.8	3
0	58551	41.8	3
0	58552	41.8	3
0	58553	41.8	3
0	58554	41.8	3
0	58799	41.85	3
0	58800	41.85	3
0	58801	41.85	3
0	58802	41.85	3
0	58907	41.9	3
0	58908	41.9	3
0	58909	41.9	3
0	58910	41.9	3
0	58911	41.9	3
0	58912	41.9	3
0	58913	41.9	3
0	58914	41.9	3
0	58955	41.95	3
0	58956	41.95	3
0	58957	41.95	3
0	58958	41.95	3
0	58991	42	3
0	58992	42	3
0	58993	42	3
0	58994	42	3
0	58995	42	3
0	58996	42	3
0	58997	42	3
0	58998	42	3
0	59039	42.05	3
0	59040	42.05	3
0	59041	42.05	3
0	59042	42.05	3
0	59079	42.1	3
0	59080	42.1	3
0	59081	42.1	3
0	59082	42.1	3
0	59083	42.1	3
0	59084	42.1	3
0	59085	42.1	3
0	59086	42.1	3
0	59132	42.15	3
0	59133	42.15	3
0	59134	42.15	3
0	59135	42.15	3
0	59168	42.2	3
0	59169	42.2	3
0	59170	42.2	3
0	59171	42.2	3
0	59172	42.2	3
0	59173	42.2	3
0	59174	42.2	3
0	59175	42.2	3
0	59216	42.25	3
0	59217	42.25	3
0	59218	42.25	3
0	59219	42.25	3
0	59252	42.3	3
0	59253	42.3	3
0	59254	42.3	3
0	59255	42.3	3
0	59256	42.3	3
0	59257	42.3	3
0	59258	42.3	3
0	59259	42.3	3
0	59300	42.35	3
0	59301	42.35	3
0	59302	42.35	3
0	59303	42.35	3
0	59542	42.4	3
0	59543	42.4	3
0	59544	42.4	3
0	59545	42.4	3
0	59546	42.4	3
0	59547	42.4	3
0	59548	42.4	3
0	59549	42.4	3
0	59723	42.45	3
0	59724	42.45	3
0	59725	42.45	3
0	59726	42.45	3
0	59759	42.5	3
0	59760	42.5	3
0	59761	42.5	3
0	59762	42.5	3
0	59763	42.5	3
0	59764	42.5	3
0	59765	42.5	3
0	59766	42.5	3
0	59807	42.55	3
0	59808	42.55	3
0	59809	42.55	3
0	59810	42.55	3
0	59843	42.6	3
0	59844	42.6	3
0	59845	42.6	3
0	59846	42.6	3
0	59847	42.6	3
0	59848	42.6	3
0	59849	42.6	3
0	59850	42.6	3
0	59891	42.65	3
0	59892	42.65	3
0	59893	42.65	3
0	59894	42.65	3
0	59927	42.7	3
0	59928	42.7	3
0	59929	42.7	3
0	59930	42.7	3
0	59931	42.7	3
0	59932	42.7	3
0	59933	42.7	3
0	59934	42.7	3
0	59975	42.75	3
0	59976	42.75	3
0	59977	42.75	3
0	59978	42.75	3
0	60011	42.8	3
0	60012	42.8	3
0	60013	42.8	3
0	60014	42.8	3
0	60015	42.8	3
0	60016	42.8	3
0	60017	42.8	3
0	60018	42.8	3
0	60059	42.85	3
0	60060	42.85	3
0	60061	42.85	3
0	60062	42.85	3
0	60095	42.9	3
0	60096	42.9	3
0	60097	42.9	3
0	60098	42.9	3
0	60099	42.9	3
0	60100	42.9	3
0	60101	42.9	3
0	60102	42.9	3
0	60347	42.95	3
0	60348	42.95	3
0	60349	42.95	3
0	60350	42.95	3
0	60455	43	3
0	60456	43	3
0	60457	43	3
0	60458	43	3
0	60459	43	3
0	60460	43	3
0	60461	43	3
0	60462	43	3
0	60503	43.05	3
0	60504	43.05	3
0	60505	43.05	3
0	60506	43.05	3
0	60543	43.1	3
0	60544	43.1	3
0	60545	43.1	3
0	60546	43.1	3
0	60547	43.1	3
0	60548	43.1	3
0	60549	43.1	3
0	60550	43.1	3
0	60596	43.15	3
0	60597	43.15	3
0	60598	43.15	3
0	60599	43.15	3
0	60632	43.2	3
0	60633	43.2	3
[...]
0	262371	190.35	3
0	262372	190.35	3
0	262373	190.35	3
0	262478	190.4	3
0	262479	190.4	3
0	262480	190.4	3
0	262481	190.4	3
0	262482	190.4	3
0	262483	190.4	3
0	262484	190.4	3
0	262485	190.4	3
0	262526	190.45	3
0	262527	190.45	3
0	262528	190.45	3
0	262529	190.45	3
0	262563	190.5	3
0	262564	190.5	3
0	262565	190.5	3
0	262566	190.5	3
0	262567	190.5	3
0	262568	190.5	3
0	262569	190.5	3
0	262570	190.5	3
0	262611	190.55	3
0	262612	190.55	3
0	262613	190.55	3
0	262614	190.55	3
0	262647	190.6	3
0	262648	190.6	3
0	262649	190.6	3
0	262650	190.6	3
0	262651	190.6	3
0	262652	190.6	3
0	262653	190.6	3
0	262654	190.6	3
0	262695	190.65	3
0	262696	190.65	3
0	262697	190.65	3
0	262698	190.65	3
0	262731	190.7	3
0	262732	190.7	3
0	262733	190.7	3
0	262734	190.7	3
0	262735	190.7	3
0	262736	190.7	3
0	262737	190.7	3
0	262738	190.7	3
0	262779	190.75	3
0	262780	190.75	3
0	262781	190.75	3
0	262782	190.75	3
0	262815	190.8	3
0	262816	190.8	3
0	262817	190.8	3
0	262818	190.8	3
0	262819	190.8	3
0	262820	190.8	3
0	262821	190.8	3
0	262822	190.8	3
0	262863	190.85	3
0	262864	190.85	3
0	262865	190.85	3
0	262866	190.85	3
0	263103	190.9	3
0	263104	190.9	3
0	263105	190.9	3
0	263106	190.9	3
0	263107	190.9	3
0	263108	190.9	3
0	263109	190.9	3
0	263110	190.9	3
0	263223	190.95	3
0	263224	190.95	3
0	263225	190.95	3
0	263226	190.95	3
0	263259	191	3
0	263260	191	3
0	263261	191	3
0	263262	191	3
0	263263	191	3
0	263264	191	3
0	263265	191	3
0	263266	191	3
0	263307	191.05	3
0	263308	191.05	3
0	263309	191.05	3
0	263310	191.05	3
0	263343	191.1	3
0	263344	191.1	3
0	263345	191.1	3
0	263346	191.1	3
0	263347	191.1	3
0	263348	191.1	3
0	263349	191.1	3
0	263350	191.1	3
0	263391	191.15	3
0	263392	191.15	3
0	263393	191.15	3
0	263394	191.15	3
0	263427	191.2	3
0	263428	191.2	3
0	263429	191.2	3
0	263430	191.2	3
0	263431	191.2	3
0	263432	191.2	3
0	263433	191.2	3
0	263434	191.2	3
0	263475	191.25	3
0	263476	191.25	3
0	263477	191.25	3
0	263478	191.25	3
0	263511	191.3	3
0	263512	191.3	3
0	263513	191.3	3
0	263514	191.3	3
0	263515	191.3	3
0	263516	191.3	3
0	263517	191.3	3
0	263518	191.3	3
0	263559	191.35	3
0	263560	191.35	3
0	263561	191.35	3
0	263562	191.35	3
0	263595	191.4	3
0	263596	191.4	3
0	263597	191.4	3
0	263598	191.4	3
0	263599	191.4	3
0	263600	191.4	3
0	263601	191.4	3
0	263602	191.4	3
0	263847	191.45	3
0	263848	191.45	3
0	263849	191.45	3
0	263850	191.45	3
0	263957	191.5	3
0	263958	191.5	3
0	263959	191.5	3
0	263960	191.5	3
0	263961	191.5	3
0	263962	191.5	3
0	263963	191.5	3
0	263964	191.5	3
0	264005	191.55	3
0	264006	191.55	3
0	264007	191.55	3
0	264008	191.55	3
0	264041	191.6	3
0	264042	191.6	3
0	264043	191.6	3
0	264044	191.6	3
0	264045	191.6	3
0	264046	191.6	3
0	264047	191.6	3
0	264048	191.6	3
0	264089	191.65	3
0	264090	191.65	3
0	264091	191.65	3
0	264092	191.65	3
0	264125	191.7	3
0	264126	191.7	3
0	264127	191.7	3
0	264128	191.7	3
0	264129	191.7	3
0	264130	191.7	3
0	264131	191.7	3
0	264132	191.7	3
0	264173	191.75	3
0	264174	191.75	3
0	264175	191.75	3
0	264176	191.75	3
0	264209	191.8	3
0	264210	191.8	3
0	264211	191.8	3
0	264212	191.8	3
0	264213	191.8	3
0	264214	191.8	3
0	264215	191.8	3
0	264216	191.8	3
0	264257	191.85	3
0	264258	191.85	3
0	264259	191.85	3
0	264260	191.85	3
0	264293	191.9	3
0	264294	191.9	3
0	264295	191.9	3
0	264296	191.9	3
0	264297	191.9	3
0	264298	191.9	3
0	264299	191.9	3
0	264300	191.9	3
0	264341	191.95	3
0	264342	191.95	3
0	264343	191.95	3
0	264344	191.95	3
0	264581	192	3
0	264582	192	3
0	264583	192	3
0	264584	192	3
0	264585	192	3
0	264586	192	3
0	264587	192	3
0	264588	192	3
0	264701	192.05	3
0	264702	192.05	3
0	264703	192.05	3
0	264704	192.05	3
0	264737	192.1	3
0	264738	192.1	3
0	264739	192.1	3
0	264740	192.1	3
0	264741	192.1	3
0	264742	192.1	3
0	264743	192.1	3
0	264744	192.1	3
0	264785	192.15	3
0	264786	192.15	3
0	264787	192.15	3
0	264788	192.15	3
0	264821	192.2	3
0	264822	192.2	3
0	264823	192.2	3
0	264824	192.2	3
0	264825	192.2	3
0	264826	192.2	3
0	264827	192.2	3
0	264828	192.2	3
0	264869	192.25	3
0	264870	192.25	3
0	264871	192.25	3
0	264872	192.25	3
0	264905	192.3	3
0	264906	192.3	3
0	264907	192.3	3
0	264908	192.3	3
0	264909	192.3	3
0	264910	192.3	3
0	264911	192.3	3
0	264912	192.3	3
0	264953	192.35	3
0	264954	192.35	3
0	264955	192.35	3
0	264956	192.35	3
0	264989	192.4	3
0	264990	192.4	3
0	264991	192.4	3
0	264992	192.4	3
0	264993	192.4	3
0	264994	192.4	3
0	264995	192.4	3
0	264996	192.4	3
0	265037	192.45	3
0	265038	192.45	3
0	265039	192.45	3
0	265040	192.45	3
0	265073	192.5	3
0	265074	192.5	3
0	265075	192.5	3
0	265076	192.5	3
0	265077	192.5	3
0	265078	192.5	3
0	265079	192.5	3
0	265080	192.5	3
0	265325	192.55	3
0	265326	192.55	3
0	265327	192.55	3
0	265328	192.55	3
0	265433	192.6	3
0	265434	192.6	3
0	265435	192.6	3
0	265436	192.6	3
0	265437	192.6	3
0	265438	192.6	3
0	265439	192.6	3
0	265440	192.6	3
0	265481	192.65	3
0	265482	192.65	3
0	265483	192.65	3
0	265484	192.65	3
0	265517	192.7	3
0	265518	192.7	3
0	265519	192.7	3
0	265520	192.7	3
0	265521	192.7	3
0	265522	192.7	3
0	265523	192.7	3
0	265524	192.7	3
0	265565	192.75	3
0	265566	192.75	3
0	265567	192.75	3
0	265568	192.75	3
0	265601	192.8	3
0	265602	192.8	3
0	265603	192.8	3
0	265604	192.8	3
0	265605	192.8	3
0	265606	192.8	3
0	265607	192.8	3
0	265608	192.8	3
0	265649	192.85	3
0	265650	192.85	3
0	265651	192.85	3
0	265652	192.85	3
0	265685	192.9	3
0	265686	192.9	3
0	265687	192.9	3
0	265688	192.9	3
0	265689	192.9	3
0	265690	192.9	3
0	265691	192.9	3
0	265692	192.9	3
0	265733	192.95	3
0	265734	192.95	3
0	265735	192.95	3
0	265736	192.95	3
0	265769	193	3
0	265770	193	3
0	265771	193	3
0	265772	193	3
0	265773	193	3
0	265774	193	3
0	265775	193	3
0	265776	193	3
0	265817	193.05	3
0	265818	193.05	3
0	265819	193.05	3
0	265820	193.05	3
0	266057	193.1	3
0	266058	193.1	3
0	266059	193.1	3
0	266060	193.1	3
0	266061	193.1	3
0	266062	193.1	3
0	266063	193.1	3
0	266064	193.1	3
0	266177	193.15	3
0	266178	193.15	3
0	266179	193.15	3
0	266180	193.15	3
0	266213	193.2	3
0	266214	193.2	3
0	266215	193.2	3
0	266216	193.2	3
0	266217	193.2	3
0	266218	193.2	3
0	266219	193.2	3
0	266220	193.2	3
0	266261	193.25	3
0	266262	193.25	3
0	266263	193.25	3
0	266264	193.25	3
0	266297	193.3	3
0	266298	193.3	3
0	266299	193.3	3
0	266300	193.3	3
0	266301	193.3	3
0	266302	193.3	3
0	266303	193.3	3
0	266304	193.3	3
0	266345	193.35	3
0	266346	193.35	3
0	266347	193.35	3
0	266348	193.35	3
0	266381	193.4	3
0	266382	193.4	3
0	266383	193.4	3
0	266384	193.4	3
0	266385	193.4	3
0	266386	193.4	3
0	266387	193.4	3
0	266388	193.4	3
0	266429	193.45	3
0	266430	193.45	3
0	266431	193.45	3
0	266432	193.45	3
0	266465	193.5	3
0	266466	193.5	3
0	266467	193.5	3
0	266468	193.5	3
0	266469	193.5	3
0	266470	193.5	3
0	266471	193.5	3
0	266472	193.5	3
0	266513	193.55	3
0	266514	193.55	3
0	266515	193.55	3
0	266516	193.55	3
0	266549	193.6	3
0	266550	193.6	3
0	266551	193.6	3
0	266552	193.6	3
0	266553	193.6	3
0	266554	193.6	3
0	266555	193.6	3
0	266556	193.6	3
0	266801	193.65	3
0	266802	193.65	3
0	266803	193.65	3
0	266804	193.65	3
0	266909	193.7	3
0	266910	193.7	3
0	266911	193.7	3
0	266912	193.7	3
0	266913	193.7	3
0	266914	193.7	3
0	266915	193.7	3
0	266916	193.7	3
0	266957	193.75	3
0	266958	193.75	3
0	266959	193.75	3
0	266960	193.75	3
0	266993	193.8	3
0	266994	193.8	3
0	266995	193.8	3
0	266996	193.8	3
0	266997	193.8	3
0	266998	193.8	3
0	266999	193.8	3
0	267000	193.8	3
0	267041	193.85	3
0	267042	193.85	3
0	267043	193.85	3
0	267044	193.85	3
0	267077	193.9	3
0	267078	193.9	3
0	267079	193.9	3
0	267080	193.9	3
0	267081	193.9	3
0	267082	193.9	3
0	267083	193.9	3
0	267084	193.9	3
0	267125	193.95	3
0	267126	193.95	3
0	267127	193.95	3
0	267128	193.95	3
0	267161	194	3
0	267162	194	3
0	267163	194	3
0	267164	194	3
0	267165	194	3
0	267166	194	3
0	267167	194	3
0	267168	194	3
0	267209	194.05	3
0	267210	194.05	3
0	267211	194.05	3
0	267212	194.05	3
0	267245	194.1	3
0	267246	194.1	3
0	267247	194.1	3
0	267248	194.1	3
0	267249	194.1	3
0	267250	194.1	3
0	267251	194.1	3
0	267252	194.1	3
0	267293	194.15	3
0	267294	194.15	3
0	267295	194.15	3
0	267296	194.15	3
0	267533	194.2	3
0	267534	194.2	3
0	267535	194.2	3
0	267536	194.2	3
0	267537	194.2	3
0	267538	194.2	3
0	267539	194.2	3
0	267540	194.2	3
0	267653	194.25	3
0	267654	194.25	3
0	267655	194.25	3
0	267656	194.25	3
0	267689	194.3	3
0	267690	194.3	3
0	267691	194.3	3
0	267692	194.3	3
0	267693	194.3	3
0	267694	194.3	3
0	267695	194.3	3
0	267696	194.3	3
0	267737	194.35	3
0	267738	194.35	3
0	267739	194.35	3
0	267740	194.35	3
0	267773	194.4	3
0	267774	194.4	3
0	267775	194.4	3
0	267776	194.4	3
0	267777	194.4	3
0	267778	194.4	3
0	267779	194.4	3
0	267780	194.4	3
0	267821	194.45	3
0	267822	194.45	3
0	267823	194.45	3
0	267824	194.45	3
0	267858	194.5	3
0	267859	194.5	3
0	267860	194.5	3
0	267861	194.5	3
0	267862	194.5	3
0	267863	194.5	3
0	267864	194.5	3
0	267865	194.5	3
0	267906	194.55	3
0	267907	194.55	3
0	267908	194.55	3
0	267909	194.55	3
0	267942	194.6	3
0	267943	194.6	3
0	267944	194.6	3
0	267945	194.6	3
0	267946	194.6	3
0	267947	194.6	3
0	267948	194.6	3
0	267949	194.6	3
0	267990	194.65	3
0	267991	194.65	3
0	267992	194.65	3
0	267993	194.65	3
0	268026	194.7	3
0	268027	194.7	3
0	268028	194.7	3
0	268029	194.7	3
0	268030	194.7	3
0	268031	194.7	3
0	268032	194.7	3
0	268033	194.7	3
0	268278	194.75	3
0	268279	194.75	3
0	268280	194.75	3
0	268281	194.75	3
0	268386	194.8	3
0	268387	194.8	3
0	268388	194.8	3
0	268389	194.8	3
0	268390	194.8	3
0	268391	194.8	3
0	268392	194.8	3
0	268393	194.8	3
0	268434	194.85	3
0	268435	194.85	3
0	268436	194.85	3
0	268437	194.85	3
0	268470	194.9	3
0	268471	194.9	3
0	268472	194.9	3
0	268473	194.9	3
0	268474	194.9	3
0	268475	194.9	3
0	268476	194.9	3
0	268477	194.9	3
0	268518	194.95	3
0	268519	194.95	3
0	268520	194.95	3
0	268521	194.95	3
0	268554	195	3
0	268555	195	3
0	268556	195	3
0	268557	195	3
0	268558	195	3
0	268559	195	3
0	268560	195	3
0	268561	195	3
0	268602	195.05	3
0	268603	195.05	3
0	268604	195.05	3
0	268605	195.05	3
0	268638	195.1	3
0	268639	195.1	3
0	268640	195.1	3
0	268641	195.1	3
0	268642	195.1	3
0	268643	195.1	3
0	268644	195.1	3
0	268645	195.1	3
0	268686	195.15	3
0	268687	195.15	3
0	268688	195.15	3
0	268689	195.15	3
0	268722	195.2	3
0	268723	195.2	3
0	268724	195.2	3
0	268725	195.2	3
0	268726	195.2	3
0	268727	195.2	3
0	268728	195.2	3
0	268729	195.2	3
0	268770	195.25	3
0	268771	195.25	3
0	268772	195.25	3
0	268773	195.25	3
0	269010	195.3	3
0	269011	195.3	3
0	269012	195.3	3
0	269013	195.3	3
0	269014	195.3	3
0	269015	195.3	3
0	269016	195.3	3
0	269017	195.3	3
0	269130	195.35	3
0	269131	195.35	3
0	269132	195.35	3
0	269133	195.35	3
0	269166	195.4	3
0	269167	195.4	3
0	269168	195.4	3
0	269169	195.4	3
0	269170	195.4	3
0	269171	195.4	3
0	269172	195.4	3
0	269173	195.4	3
0	269214	195.45	3
0	269215	195.45	3
0	269216	195.45	3
0	269217	195.45	3
0	269251	195.5	3
0	269252	195.5	3
0	269253	195.5	3
0	269254	195.5	3
0	269255	195.5	3
0	269256	195.5	3
0	269257	195.5	3
0	269258	195.5	3
0	269299	195.55	3
0	269300	195.55	3
0	269301	195.55	3
0	269302	195.55	3
0	269335	195.6	3
0	269336	195.6	3
0	269337	195.6	3
0	269338	195.6	3
0	269339	195.6	3
0	269340	195.6	3
0	269341	195.6	3
0	269342	195.6	3
0	269383	195.65	3
0	269384	195.65	3
0	269385	195.65	3
0	269386	195.65	3
0	269419	195.7	3
0	269420	195.7	3
0	269421	195.7	3
0	269422	195.7	3
0	269423	195.7	3
0	269424	195.7	3
0	269425	195.7	3
0	269426	195.7	3
0	269467	195.75	3
0	269468	195.75	3
0	269469	195.75	3
0	269470	195.75	3
0	269503	195.8	3
0	269504	195.8	3
0	269505	195.8	3
0	269506	195.8	3
0	269507	195.8	3
0	269508	195.8	3
0	269509	195.8	3
0	269510	195.8	3
0	269755	195.85	3
0	269756	195.85	3
0	269757	195.85	3
0	269758	195.85	3
0	269863	195.9	3
0	269864	195.9	3
0	269865	195.9	3
0	269866	195.9	3
0	269867	195.9	3
0	269868	195.9	3
0	269869	195.9	3
0	269870	195.9	3
0	269911	195.95	3
0	269912	195.95	3
0	269913	195.95	3
0	269914	195.95	3
0	269947	196	3
0	269948	196	3
0	269949	196	3
0	269950	196	3
0	269951	196	3
0	269952	196	3
0	269953	196	3
0	269954	196	3
0	269995	196.05	3
0	269996	196.05	3
0	269997	196.05	3
0	269998	196.05	3
0	270031	196.1	3
0	270032	196.1	3
0	270033	196.1	3
0	270034	196.1	3
0	270035	196.1	3
0	270036	196.1	3
0	270037	196.1	3
0	270038	196.1	3
0	270079	196.15	3
0	270080	196.15	3
0	270081	196.15	3
0	270082	196.15	3
0	270115	196.2	3
0	270116	196.2	3
0	270117	196.2	3
0	270118	196.2	3
0	270119	196.2	3
0	270120	196.2	3
0	270121	196.2	3
0	270122	196.2	3
0	270163	196.25	3
0	270164	196.25	3
0	270165	196.25	3
0	270166	196.25	3
0	270199	196.3	3
0	270200	196.3	3
0	270201	196.3	3
0	270202	196.3	3
0	270203	196.3	3
0	270204	196.3	3
0	270205	196.3	3
0	270206	196.3	3
0	270247	196.35	3
0	270248	196.35	3
0	270249	196.35	3
0	270250	196.35	3
0	270487	196.4	3
0	270488	196.4	3
0	270489	196.4	3
0	270490	196.4	3
0	270491	196.4	3
0	270492	196.4	3
0	270493	196.4	3
0	270494	196.4	3
0	270607	196.45	3
0	270608	196.45	3
0	270609	196.45	3
0	270610	196.45	3
0	270645	196.5	3
0	270646	196.5	3
0	270647	196.5	3
0	270648	196.5	3
0	270649	196.5	3
0	270650	196.5	3
0	270651	196.5	3
0	270652	196.5	3
0	270693	196.55	3
0	270694	196.55	3
0	270695	196.55	3
0	270696	196.55	3
0	270729	196.6	3
0	270730	196.6	3
0	270731	196.6	3
0	270732	196.6	3
0	270733	196.6	3
0	270734	196.6	3
0	270735	196.6	3
0	270736	196.6	3
0	270777	196.65	3
0	270778	196.65	3
0	270779	196.65	3
0	270780	196.65	3
0	270813	196.7	3
0	270814	196.7	3
0	270815	196.7	3
0	270816	196.7	3
0	270817	196.7	3
0	270818	196.7	3
0	270819	196.7	3
0	270820	196.7	3
0	270861	196.75	3
0	270862	196.75	3
0	270863	196.75	3
0	270864	196.75	3
0	270897	196.8	3
0	270898	196.8	3
0	270899	196.8	3
0	270900	196.8	3
0	270901	196.8	3
0	270902	196.8	3
0	270903	196.8	3
0	270904	196.8	3
0	270945	196.85	3
0	270946	196.85	3
0	270947	196.85	3
0	270948	196.85	3
0	270981	196.9	3
0	270982	196.9	3
0	270983	196.9	3
0	270984	196.9	3
0	270985	196.9	3
0	270986	196.9	3
0	270987	196.9	3
0	270988	196.9	3
0	271233	196.95	3
0	271234	196.95	3
0	271235	196.95	3
0	271236	196.95	3
0	271341	197	3
0	271342	197	3
0	271343	197	3
0	271344	197	3
0	271345	197	3
0	271346	197	3
0	271347	197	3
0	271348	197	3
0	271389	197.05	3
0	271390	197.05	3
0	271391	197.05	3
0	271392	197.05	3
0	271425	197.1	3
0	271426	197.1	3
0	271427	197.1	3
0	271428	197.1	3
0	271429	197.1	3
0	271430	197.1	3
0	271431	197.1	3
0	271432	197.1	3
0	271473	197.15	3
0	271474	197.15	3
0	271475	197.15	3
0	271476	197.15	3
0	271509	197.2	3
0	271510	197.2	3
0	271511	197.2	3
0	271512	197.2	3
0	271513	197.2	3
0	271514	197.2	3
0	271515	197.2	3
0	271516	197.2	3
0	271557	197.25	3
0	271558	197.25	3
0	271559	197.25	3
0	271560	197.25	3
0	271593	197.3	3
0	271594	197.3	3
0	271595	197.3	3
0	271596	197.3	3
0	271597	197.3	3
0	271598	197.3	3
0	271599	197.3	3
0	271600	197.3	3
0	271641	197.35	3
0	271642	197.35	3
0	271643	197.35	3
0	271644	197.35	3
0	271677	197.4	3
0	271678	197.4	3
0	271679	197.4	3
0	271680	197.4	3
0	271681	197.4	3
0	271682	197.4	3
0	271683	197.4	3
0	271684	197.4	3
0	271725	197.45	3
0	271726	197.45	3
0	271727	197.45	3
0	271728	197.45	3
0	271965	197.5	3
0	271966	197.5	3
0	271967	197.5	3
0	271968	197.5	3
0	271969	197.5	3
0	271970	197.5	3
0	271971	197.5	3
0	271972	197.5	3
0	272085	197.55	3
0	272086	197.55	3
0	272087	197.55	3
0	272088	197.55	3
0	272121	197.6	3
0	272122	197.6	3
0	272123	197.6	3
0	272124	197.6	3
0	272125	197.6	3
0	272126	197.6	3
0	272127	197.6	3
0	272128	197.6	3
0	272169	197.65	3
0	272170	197.65	3
0	272171	197.65	3
0	272172	197.65	3
0	272205	197.7	3
0	272206	197.7	3
0	272207	197.7	3
0	272208	197.7	3
0	272209	197.7	3
0	272210	197.7	3
0	272211	197.7	3
0	272212	197.7	3
0	272253	197.75	3
0	272254	197.75	3
0	272255	197.75	3
0	272256	197.75	3
0	272289	197.8	3
0	272290	197.8	3
0	272291	197.8	3
0	272292	197.8	3
0	272293	197.8	3
0	272294	197.8	3
0	272295	197.8	3
0	272296	197.8	3
0	272337	197.85	3
0	272338	197.85	3
0	272339	197.85	3
0	272340	197.85	3
0	272373	197.9	3
0	272374	197.9	3
0	272375	197.9	3
0	272376	197.9	3
0	272377	197.9	3
0	272378	197.9	3
0	272379	197.9	3
0	272380	197.9	3
0	272421	197.95	3
0	272422	197.95	3
0	272423	197.95	3
0	272424	197.95	3
0	272457	198	3
0	272458	198	3
0	272459	198	3
0	272460	198	3
0	272461	198	3
0	272462	198	3
0	272463	198	3
0	272464	198	3
0	272709	198.05	3
0	272710	198.05	3
0	272711	198.05	3
0	272712	198.05	3
0	272817	198.1	3
0	272818	198.1	3
0	272819	198.1	3
0	272820	198.1	3
0	272821	198.1	3
0	272822	198.1	3
0	272823	198.1	3
0	272824	198.1	3
0	272865	198.15	3
0	272866	198.15	3
0	272867	198.15	3
0	272868	198.15	3
0	272901	198.2	3
0	272902	198.2	3
0	272903	198.2	3
0	272904	198.2	3
0	272905	198.2	3
0	272906	198.2	3
0	272907	198.2	3
0	272908	198.2	3
0	272949	198.25	3
0	272950	198.25	3
0	272951	198.25	3
0	272952	198.25	3
0	272985	198.3	3
0	272986	198.3	3
0	272987	198.3	3
0	272988	198.3	3
0	272989	198.3	3
0	272990	198.3	3
0	272991	198.3	3
0	272992	198.3	3
0	273033	198.35	3
0	273034	198.35	3
0	273035	198.35	3
0	273036	198.35	3
0	273069	198.4	3
0	273070	198.4	3
0	273071	198.4	3
0	273072	198.4	3
0	273073	198.4	3
0	273074	198.4	3
0	273075	198.4	3
0	273076	198.4	3
0	273117	198.45	3
0	273118	198.45	3
0	273119	198.45	3
0	273120	198.45	3
0	273153	198.5	3
0	273154	198.5	3
0	273155	198.5	3
0	273156	198.5	3
0	273157	198.5	3
0	273158	198.5	3
0	273159	198.5	3
0	273160	198.5	3
0	273201	198.55	3
0	273202	198.55	3
0	273203	198.55	3
0	273204	198.55	3
0	273441	198.6	3
0	273442	198.6	3
0	273443	198.6	3
0	273444	198.6	3
0	273445	198.6	3
0	273446	198.6	3
0	273447	198.6	3
0	273448	198.6	3
0	273561	198.65	3
0	273562	198.65	3
0	273563	198.65	3
0	273564	198.65	3
0	273597	198.7	3
0	273598	198.7	3
0	273599	198.7	3
0	273600	198.7	3
0	273601	198.7	3
0	273602	198.7	3
0	273603	198.7	3
0	273604	198.7	3
0	273645	198.75	3
0	273646	198.75	3
0	273647	198.75	3
0	273648	198.75	3
0	273681	198.8	3
0	273682	198.8	3
0	273683	198.8	3
0	273684	198.8	3
0	273685	198.8	3
0	273686	198.8	3
0	273687	198.8	3
0	273688	198.8	3
0	273729	198.85	3
0	273730	198.85	3
0	273731	198.85	3
0	273732	198.85	3
0	273765	198.9	3
0	273766	198.9	3
0	273767	198.9	3
0	273768	198.9	3
0	273769	198.9	3
0	273770	198.9	3
0	273771	198.9	3
0	273772	198.9	3
0	273813	198.95	3
0	273814	198.95	3
0	273815	198.95	3
0	273816	198.95	3
0	273849	199	3
0	273850	199	3
0	273851	199	3
0	273852	199	3
0	273853	199	3
0	273854	199	3
0	273855	199	3
0	273856	199	3
0	273897	199.05	3
0	273898	199.05	3
0	273899	199.05	3
0	273900	199.05	3
0	273933	199.1	3
0	273934	199.1	3
0	273935	199.1	3
0	273936	199.1	3
0	273937	199.1	3
0	273938	199.1	3
0	273939	199.1	3
0	273940	199.1	3
0	274185	199.15	3
0	274186	199.15	3
0	274187	199.15	3
0	274188	199.15	3
0	274293	199.2	3
0	274294	199.2	3
0	274295	199.2	3
0	274296	199.2	3
0	274297	199.2	3
0	274298	199.2	3
0	274299	199.2	3
0	274300	199.2	3
0	274341	199.25	3
0	274342	199.25	3
0	274343	199.25	3
0	274344	199.25	3
0	274377	199.3	3
0	274378	199.3	3
0	274379	199.3	3
0	274380	199.3	3
0	274381	199.3	3
0	274382	199.3	3
0	274383	199.3	3
0	274384	199.3	3
0	274425	199.35	3
0	274426	199.35	3
0	274427	199.35	3
0	274428	199.35	3
0	274461	199.4	3
0	274462	199.4	3
0	274463	199.4	3
0	274464	199.4	3
0	274465	199.4	3
0	274466	199.4	3
0	274467	199.4	3
0	274468	199.4	3
0	274509	199.45	3
0	274510	199.45	3
0	274511	199.45	3
0	274512	199.45	3
0	274546	199.5	3
0	274547	199.5	3
0	274548	199.5	3
0	274549	199.5	3
0	274550	199.5	3
0	274551	199.5	3
0	274552	199.5	3
0	274553	199.5	3
0	274594	199.55	3
0	274595	199.55	3
0	274596	199.55	3
0	274597	199.55	3
0	274630	199.6	3
0	274631	199.6	3
0	274632	199.6	3
0	274633	199.6	3
0	274634	199.6	3
0	274635	199.6	3
0	274636	199.6	3
0	274637	199.6	3
0	274678	199.65	3
0	274679	199.65	3
0	274680	199.65	3
0	274681	199.65	3
0	274918	199.7	3
0	274919	199.7	3
0	274920	199.7	3
0	274921	199.7	3
0	274922	199.7	3
0	274923	199.7	3
0	274924	199.7	3
0	274925	199.7	3
0	275038	199.75	3
0	275039	199.75	3
0	275040	199.75	3
0	275041	199.75	3
0	275074	199.8	3
0	275075	199.8	3
0	275076	199.8	3
0	275077	199.8	3
0	275078	199.8	3
0	275079	199.8	3
0	275080	199.8	3
0	275081	199.8	3
0	275122	199.85	3
0	275123	199.85	3
0	275124	199.85	3
0	275125	199.85	3
0	275158	199.9	3
0	275159	199.9	3
0	275160	199.9	3
0	275161	199.9	3
0	275162	199.9	3
0	275163	199.9	3
0	275164	199.9	3
0	275165	199.9	3
0	275206	199.95	3
0	275207	199.95	3
0	275208	199.95	3
0	275209	199.95	3
0	275242	200	3
0	275243	200	3
0	275244	200	3
0	275245	200	3
0	275246	200	3
0	275247	200	3
0	275248	200	3
0	275249	200	3

