version 2
run A-0-20191021-22:27:50-9902
attr configname A
attr datetime 20191021-22:27:50
attr experiment A
attr inifile GwSimV1.ini
attr iterationvars ""
attr iterationvarsf ""
attr measurement ""
attr network NetworkTormV2
attr processid 9902
attr repetition 0
attr replication #0
attr resultdir results
attr runnumber 0
attr seedset 0
param **.mobility.traceFile "\"AllPaths/sPaths/A.movements\""
param **.numNodes 4
param **.application.dataGenerationInterval 1s
param **.application.dataSizeInBytes 10
param **.application.ttl 999999s
param **application.nodesThatGen false
param **application.nodesGenMsg "\"\""
param **application.startMultipleMsg false
param **application.numMultipleMsg 100
param **application.hopsListSize 50
param **.application.endGeneratingMsg 99s
param **.routingLayer "\"RoutingLqeGw\""
param **.routing.maximumCacheSize 5000byte
param **.routing.maximumHopCount 25
param **.routing.useTTL false
param **.routing.waitBFsend 0.1
param **.routing.max_age 999999s
param **.routing.gateway_list "\"\""
param **.routing.actual_gateway "\"\""
param **.routing.gwCheckPeriod 5s
param **.neighboring.resetGPeriod 999s
param **.wirelessIfc.wirelessRange 40m
param **.numNodes 2
param **.application.usedRNG 1
param **.application.dataGenerationInterval 1s
param **.application.dataSizeInBytes 10
param **.application.ttl 999999s
param **application.destinationAddr "\"Wf:00:00:00:00:02\""
param **application.destinationBTAddr "\"Bt:00:00:00:00:02\""
param **application.nodesThatGen true
param **application.nodesGenMsg "\"0\""
param **application.startMultipleMsg true
param **application.numMultipleMsg 100
param **application.hopsListSize 50
param **.application.endGeneratingMsg 999999s
param **.routingLayer "\"RoutingLqeGw\""
param **.routing.maximumCacheSize 5000byte
param **.routing.maximumHopCount 25
param **.routing.useTTL false
param **.routing.waitBFsend 0.1
param **.routing.max_age 999999s
param **.routing.gateway_list "\"\""
param **.routing.actual_gateway "\"\""
param **.routing.gwCheckPeriod 5s
param **.neighboring.antiEntropyInterval 500ms
param **.neighboring.maximumRandomBackoffDuration 1s
param **.neighboring.delayPerDataMsg 0.1
param **neighboring.usedRNG 2
param **.neighboring.GWAddr "\"Wf:00:00:00:00:02\""
param **.neighboring.sendWifiFirst true
param **.neighboring.maxLengthGraph 20
param **.neighboring.max_age 999999s
param **.neighboring.max_absent_time 1s
param **.wirelessIfc.wirelessRange 40m
param **.wirelessIfc.neighbourScanInterval 50ms
param **.wirelessIfc.bandwidthBitRate 100000bps
param **.wirelessIfc.wirelessHeaderSize 32byte
param **.wirelessIfc.minSSI -90
param **.wirelessIfc.limitQueueTime 400ms
param **.wirelessIfc.my_limit_rate 0bps
param **.bluetoothIfc.wirelessRange 40m
param **.bluetoothIfc.neighbourScanInterval 100ms
param **.bluetoothIfc.bandwidthBitRate 100000bps
param **.bluetoothIfc.wirelessHeaderSize 16byte
param **.bluetoothIfc.minSSI -90
param **.mobilityType "\"BonnMotionMobility\""
param **.mobility.traceFile "\"paths/Moves2.movements\""
param **.mobility.is3D false
param **.mobility.nodeId -1

vector 0 NetworkTormV2 neighbourhoodSize:vector ETV
attr source neighbourhoodSize
vector 1 NetworkTormV2 deliveryRatio:vector ETV
attr source sum(totalDataBytesReceived)/sum(totalDataBytesReceivableByAllNodes)
vector 2 NetworkTormV2 dataBytesReceivedSum:vector ETV
attr source sum(dataBytesReceived)
vector 3 NetworkTormV2 totalBytesReceivedSum:vector ETV
attr source sum(totalBytesReceived)
0	13	0.05	3
0	14	0.05	3
0	15	0.05	3
0	16	0.05	3
0	50	0.1	3
0	52	0.1	3
0	54	0.1	3
0	56	0.1	3
0	57	0.1	3
0	58	0.1	3
0	59	0.1	3
0	60	0.1	3
0	105	0.15	3
0	106	0.15	3
0	107	0.15	3
0	108	0.15	3
0	141	0.2	3
0	142	0.2	3
0	143	0.2	3
0	144	0.2	3
0	145	0.2	3
0	146	0.2	3
0	147	0.2	3
0	148	0.2	3
0	189	0.25	3
0	190	0.25	3
0	191	0.25	3
0	192	0.25	3
0	225	0.3	3
0	226	0.3	3
0	227	0.3	3
0	228	0.3	3
0	229	0.3	3
0	230	0.3	3
0	231	0.3	3
0	232	0.3	3
0	273	0.35	3
0	274	0.35	3
0	275	0.35	3
0	276	0.35	3
0	309	0.4	3
0	310	0.4	3
0	311	0.4	3
0	312	0.4	3
0	313	0.4	3
0	314	0.4	3
0	315	0.4	3
0	316	0.4	3
0	357	0.45	3
0	358	0.45	3
0	359	0.45	3
0	360	0.45	3
0	393	0.5	3
0	394	0.5	3
0	395	0.5	3
0	396	0.5	3
0	397	0.5	3
0	398	0.5	3
0	399	0.5	3
0	400	0.5	3
0	441	0.55	3
0	442	0.55	3
0	443	0.55	3
0	444	0.55	3
0	477	0.6	3
0	478	0.6	3
0	479	0.6	3
0	480	0.6	3
0	481	0.6	3
0	482	0.6	3
0	483	0.6	3
0	484	0.6	3
0	525	0.65	3
0	526	0.65	3
0	527	0.65	3
0	528	0.65	3
0	561	0.7	3
0	562	0.7	3
0	563	0.7	3
0	564	0.7	3
0	565	0.7	3
0	566	0.7	3
0	567	0.7	3
0	568	0.7	3
0	609	0.75	3
0	610	0.75	3
0	611	0.75	3
0	612	0.75	3
0	645	0.8	3
0	646	0.8	3
0	647	0.8	3
0	648	0.8	3
0	649	0.8	3
0	650	0.8	3
0	651	0.8	3
0	652	0.8	3
0	693	0.85	3
0	694	0.85	3
0	695	0.85	3
0	696	0.85	3
0	729	0.9	3
0	730	0.9	3
0	731	0.9	3
0	732	0.9	3
0	733	0.9	3
0	734	0.9	3
0	735	0.9	3
0	736	0.9	3
0	777	0.95	3
0	778	0.95	3
0	779	0.95	3
0	780	0.95	3
0	813	1	3
0	814	1	3
0	815	1	3
0	816	1	3
0	817	1	3
0	818	1	3
0	819	1	3
0	820	1	3
0	861	1.05	3
0	862	1.05	3
0	863	1.05	3
0	864	1.05	3
0	901	1.1	3
0	902	1.1	3
0	903	1.1	3
0	904	1.1	3
0	905	1.1	3
0	906	1.1	3
0	907	1.1	3
0	908	1.1	3
0	1157	1.15	3
0	1158	1.15	3
0	1159	1.15	3
0	1160	1.15	3
0	1265	1.2	3
0	1266	1.2	3
0	1267	1.2	3
0	1268	1.2	3
0	1269	1.2	3
0	1270	1.2	3
0	1271	1.2	3
0	1272	1.2	3
0	1313	1.25	3
0	1314	1.25	3
0	1315	1.25	3
0	1316	1.25	3
0	1349	1.3	3
0	1350	1.3	3
0	1351	1.3	3
0	1352	1.3	3
0	1353	1.3	3
0	1354	1.3	3
0	1355	1.3	3
0	1356	1.3	3
0	1397	1.35	3
0	1398	1.35	3
0	1399	1.35	3
0	1400	1.35	3
0	1433	1.4	3
0	1434	1.4	3
0	1435	1.4	3
0	1436	1.4	3
0	1437	1.4	3
0	1438	1.4	3
0	1439	1.4	3
0	1440	1.4	3
0	1481	1.45	3
0	1482	1.45	3
0	1483	1.45	3
0	1484	1.45	3
0	1517	1.5	3
0	1518	1.5	3
0	1519	1.5	3
0	1520	1.5	3
0	1521	1.5	3
0	1522	1.5	3
0	1523	1.5	3
0	1524	1.5	3
0	1565	1.55	3
0	1566	1.55	3
0	1567	1.55	3
0	1568	1.55	3
0	1601	1.6	3
0	1602	1.6	3
0	1603	1.6	3
0	1604	1.6	3
0	1605	1.6	3
0	1606	1.6	3
0	1607	1.6	3
0	1608	1.6	3
0	1649	1.65	3
0	1650	1.65	3
0	1651	1.65	3
0	1652	1.65	3
0	1889	1.7	3
0	1890	1.7	3
0	1891	1.7	3
0	1892	1.7	3
0	1893	1.7	3
0	1894	1.7	3
0	1895	1.7	3
0	1896	1.7	3
0	2009	1.75	3
0	2010	1.75	3
0	2011	1.75	3
0	2012	1.75	3
0	2045	1.8	3
0	2046	1.8	3
0	2047	1.8	3
0	2048	1.8	3
0	2049	1.8	3
0	2050	1.8	3
0	2051	1.8	3
0	2052	1.8	3
0	2093	1.85	3
0	2094	1.85	3
0	2095	1.85	3
0	2096	1.85	3
0	2129	1.9	3
0	2130	1.9	3
0	2131	1.9	3
0	2132	1.9	3
0	2133	1.9	3
0	2134	1.9	3
0	2135	1.9	3
0	2136	1.9	3
0	2177	1.95	3
0	2178	1.95	3
0	2179	1.95	3
0	2180	1.95	3
0	2213	2	3
0	2214	2	3
0	2215	2	3
0	2216	2	3
0	2217	2	3
0	2218	2	3
0	2219	2	3
0	2220	2	3
0	2261	2.05	3
0	2262	2.05	3
0	2263	2.05	3
0	2264	2.05	3
0	2301	2.1	3
0	2302	2.1	3
0	2303	2.1	3
0	2304	2.1	3
0	2305	2.1	3
0	2306	2.1	3
0	2307	2.1	3
0	2308	2.1	3
0	2353	2.15	3
0	2354	2.15	3
0	2355	2.15	3
0	2356	2.15	3
0	2389	2.2	3
0	2390	2.2	3
0	2391	2.2	3
0	2392	2.2	3
0	2393	2.2	3
0	2394	2.2	3
0	2395	2.2	3
0	2396	2.2	3
0	2641	2.25	3
0	2642	2.25	3
0	2643	2.25	3
0	2644	2.25	3
0	2749	2.3	3
0	2750	2.3	3
0	2751	2.3	3
0	2752	2.3	3
0	2753	2.3	3
0	2754	2.3	3
0	2755	2.3	3
0	2756	2.3	3
0	2797	2.35	3
0	2798	2.35	3
0	2799	2.35	3
0	2800	2.35	3
0	2833	2.4	3
0	2834	2.4	3
0	2835	2.4	3
0	2836	2.4	3
0	2837	2.4	3
0	2838	2.4	3
0	2839	2.4	3
0	2840	2.4	3
0	2881	2.45	3
0	2882	2.45	3
0	2883	2.45	3
0	2884	2.45	3
0	2917	2.5	3
0	2918	2.5	3
0	2919	2.5	3
0	2920	2.5	3
0	2921	2.5	3
0	2922	2.5	3
0	2923	2.5	3
0	2924	2.5	3
0	2965	2.55	3
0	2966	2.55	3
0	2967	2.55	3
0	2968	2.55	3
0	3001	2.6	3
0	3002	2.6	3
0	3003	2.6	3
0	3004	2.6	3
0	3005	2.6	3
0	3006	2.6	3
0	3007	2.6	3
0	3008	2.6	3
0	3049	2.65	3
0	3050	2.65	3
0	3051	2.65	3
0	3052	2.65	3
0	3085	2.7	3
0	3086	2.7	3
0	3087	2.7	3
0	3088	2.7	3
0	3089	2.7	3
0	3090	2.7	3
0	3091	2.7	3
0	3092	2.7	3
0	3133	2.75	3
0	3134	2.75	3
0	3135	2.75	3
0	3136	2.75	3
0	3373	2.8	3
0	3374	2.8	3
0	3375	2.8	3
0	3376	2.8	3
0	3377	2.8	3
0	3378	2.8	3
0	3379	2.8	3
0	3380	2.8	3
0	3493	2.85	3
0	3494	2.85	3
0	3495	2.85	3
0	3496	2.85	3
0	3529	2.9	3
0	3530	2.9	3
0	3531	2.9	3
0	3532	2.9	3
0	3533	2.9	3
0	3534	2.9	3
0	3535	2.9	3
0	3536	2.9	3
0	3577	2.95	3
0	3578	2.95	3
0	3579	2.95	3
0	3580	2.95	3
0	3613	3	3
0	3614	3	3
0	3615	3	3
0	3616	3	3
0	3617	3	3
0	3618	3	3
0	3619	3	3
0	3620	3	3
0	3661	3.05	3
0	3662	3.05	3
0	3663	3.05	3
0	3664	3.05	3
0	3701	3.1	3
0	3702	3.1	3
0	3703	3.1	3
0	3704	3.1	3
0	3705	3.1	3
0	3706	3.1	3
0	3707	3.1	3
0	3708	3.1	3
0	3753	3.15	3
0	3754	3.15	3
0	3755	3.15	3
0	3756	3.15	3
0	3789	3.2	3
0	3790	3.2	3
0	3791	3.2	3
0	3792	3.2	3
0	3793	3.2	3
0	3794	3.2	3
0	3795	3.2	3
0	3796	3.2	3
0	3837	3.25	3
0	3838	3.25	3
0	3839	3.25	3
0	3840	3.25	3
0	3873	3.3	3
0	3874	3.3	3
0	3875	3.3	3
0	3876	3.3	3
0	3877	3.3	3
0	3878	3.3	3
0	3879	3.3	3
0	3880	3.3	3
0	4125	3.35	3
0	4126	3.35	3
0	4127	3.35	3
0	4128	3.35	3
0	4233	3.4	3
0	4234	3.4	3
0	4235	3.4	3
0	4236	3.4	3
0	4237	3.4	3
0	4238	3.4	3
0	4239	3.4	3
0	4240	3.4	3
0	4281	3.45	3
0	4282	3.45	3
0	4283	3.45	3
0	4284	3.45	3
0	4317	3.5	3
0	4318	3.5	3
0	4319	3.5	3
0	4320	3.5	3
0	4321	3.5	3
0	4322	3.5	3
0	4323	3.5	3
0	4324	3.5	3
0	4365	3.55	3
0	4366	3.55	3
0	4367	3.55	3
0	4368	3.55	3
0	4401	3.6	3
0	4402	3.6	3
0	4403	3.6	3
0	4404	3.6	3
0	4405	3.6	3
0	4406	3.6	3
0	4407	3.6	3
0	4408	3.6	3
0	4449	3.65	3
0	4450	3.65	3
0	4451	3.65	3
0	4452	3.65	3
0	4485	3.7	3
0	4486	3.7	3
0	4487	3.7	3
0	4488	3.7	3
0	4489	3.7	3
0	4490	3.7	3
0	4491	3.7	3
0	4492	3.7	3
0	4533	3.75	3
0	4534	3.75	3
0	4535	3.75	3
0	4536	3.75	3
0	4569	3.8	3
0	4570	3.8	3
0	4571	3.8	3
0	4572	3.8	3
0	4573	3.8	3
0	4574	3.8	3
0	4575	3.8	3
0	4576	3.8	3
0	4617	3.85	3
0	4618	3.85	3
0	4619	3.85	3
0	4620	3.85	3
0	4857	3.9	3
0	4858	3.9	3
0	4859	3.9	3
0	4860	3.9	3
0	4861	3.9	3
0	4862	3.9	3
0	4863	3.9	3
0	4864	3.9	3
0	4977	3.95	3
0	4978	3.95	3
0	4979	3.95	3
0	4980	3.95	3
0	5013	4	3
0	5014	4	3
0	5015	4	3
0	5016	4	3
0	5017	4	3
0	5018	4	3
0	5019	4	3
0	5020	4	3
0	5061	4.05	3
0	5062	4.05	3
0	5063	4.05	3
0	5064	4.05	3
0	5101	4.1	3
0	5102	4.1	3
0	5103	4.1	3
0	5104	4.1	3
0	5105	4.1	3
0	5106	4.1	3
0	5107	4.1	3
0	5108	4.1	3
0	5153	4.15	3
0	5154	4.15	3
0	5155	4.15	3
0	5156	4.15	3
0	5189	4.2	3
0	5190	4.2	3
0	5191	4.2	3
0	5192	4.2	3
0	5193	4.2	3
0	5194	4.2	3
0	5195	4.2	3
0	5196	4.2	3
0	5237	4.25	3
0	5238	4.25	3
0	5239	4.25	3
0	5240	4.25	3
0	5273	4.3	3
0	5274	4.3	3
0	5275	4.3	3
0	5276	4.3	3
0	5277	4.3	3
0	5278	4.3	3
0	5279	4.3	3
0	5280	4.3	3
0	5321	4.35	3
0	5322	4.35	3
0	5323	4.35	3
0	5324	4.35	3
0	5357	4.4	3
0	5358	4.4	3
0	5359	4.4	3
0	5360	4.4	3
0	5361	4.4	3
0	5362	4.4	3
0	5363	4.4	3
0	5364	4.4	3
0	5609	4.45	3
0	5610	4.45	3
0	5611	4.45	3
0	5612	4.45	3
0	5717	4.5	3
0	5718	4.5	3
0	5719	4.5	3
0	5720	4.5	3
0	5721	4.5	3
0	5722	4.5	3
0	5723	4.5	3
0	5724	4.5	3
0	5765	4.55	3
0	5766	4.55	3
0	5767	4.55	3
0	5768	4.55	3
0	5801	4.6	3
0	5802	4.6	3
0	5803	4.6	3
0	5804	4.6	3
0	5805	4.6	3
0	5806	4.6	3
0	5807	4.6	3
0	5808	4.6	3
0	5849	4.65	3
0	5850	4.65	3
0	5851	4.65	3
0	5852	4.65	3
0	5885	4.7	3
0	5886	4.7	3
0	5887	4.7	3
0	5888	4.7	3
0	5889	4.7	3
0	5890	4.7	3
0	5891	4.7	3
0	5892	4.7	3
0	5933	4.75	3
0	5934	4.75	3
0	5935	4.75	3
0	5936	4.75	3
0	5969	4.8	3
0	5970	4.8	3
0	5971	4.8	3
0	5972	4.8	3
0	5973	4.8	3
0	5974	4.8	3
0	5975	4.8	3
0	5976	4.8	3
0	6017	4.85	3
0	6018	4.85	3
0	6019	4.85	3
0	6020	4.85	3
0	6053	4.9	3
0	6054	4.9	3
0	6055	4.9	3
0	6056	4.9	3
0	6057	4.9	3
0	6058	4.9	3
0	6059	4.9	3
0	6060	4.9	3
0	6101	4.95	3
0	6102	4.95	3
0	6103	4.95	3
0	6104	4.95	3
0	6345	5	3
0	6346	5	3
0	6347	5	3
0	6348	5	3
0	6349	5	3
0	6350	5	3
0	6351	5	3
0	6352	5	3
0	6465	5.05	3
0	6466	5.05	3
0	6467	5.05	3
0	6468	5.05	3
0	6505	5.1	3
0	6506	5.1	3
0	6507	5.1	3
0	6508	5.1	3
0	6509	5.1	3
0	6510	5.1	3
0	6511	5.1	3
0	6512	5.1	3
0	6557	5.15	3
0	6558	5.15	3
0	6559	5.15	3
0	6560	5.15	3
0	6593	5.2	3
0	6594	5.2	3
0	6595	5.2	3
0	6596	5.2	3
0	6597	5.2	3
0	6598	5.2	3
0	6599	5.2	3
0	6600	5.2	3
0	6641	5.25	3
0	6642	5.25	3
0	6643	5.25	3
0	6644	5.25	3
0	6677	5.3	3
0	6678	5.3	3
0	6679	5.3	3
0	6680	5.3	3
0	6681	5.3	3
0	6682	5.3	3
0	6683	5.3	3
0	6684	5.3	3
0	6725	5.35	3
0	6726	5.35	3
0	6727	5.35	3
0	6728	5.35	3
0	6761	5.4	3
0	6762	5.4	3
0	6763	5.4	3
0	6764	5.4	3
0	6765	5.4	3
0	6766	5.4	3
0	6767	5.4	3
0	6768	5.4	3
0	6809	5.45	3
0	6810	5.45	3
0	6811	5.45	3
0	6812	5.45	3
0	6849	5.5	3
0	6850	5.5	3
0	6851	5.5	3
0	6852	5.5	3
0	6853	5.5	3
0	6854	5.5	3
0	6855	5.5	3
0	6856	5.5	3
0	7101	5.55	3
0	7102	5.55	3
0	7103	5.55	3
0	7104	5.55	3
0	7209	5.6	3
0	7210	5.6	3
0	7211	5.6	3
0	7212	5.6	3
0	7213	5.6	3
0	7214	5.6	3
0	7215	5.6	3
0	7216	5.6	3
0	7257	5.65	3
0	7258	5.65	3
0	7259	5.65	3
0	7260	5.65	3
0	7293	5.7	3
0	7294	5.7	3
0	7295	5.7	3
0	7296	5.7	3
0	7297	5.7	3
0	7298	5.7	3
0	7299	5.7	3
0	7300	5.7	3
0	7341	5.75	3
0	7342	5.75	3
0	7343	5.75	3
0	7344	5.75	3
0	7377	5.8	3
0	7378	5.8	3
0	7379	5.8	3
0	7380	5.8	3
0	7381	5.8	3
0	7382	5.8	3
0	7383	5.8	3
0	7384	5.8	3
0	7425	5.85	3
0	7426	5.85	3
0	7427	5.85	3
0	7428	5.85	3
0	7461	5.9	3
0	7462	5.9	3
0	7463	5.9	3
0	7464	5.9	3
0	7465	5.9	3
0	7466	5.9	3
0	7467	5.9	3
0	7468	5.9	3
0	7509	5.95	3
0	7510	5.95	3
0	7511	5.95	3
0	7512	5.95	3
0	7549	6	3
0	7550	6	3
0	7551	6	3
0	7552	6	3
0	7553	6	3
0	7554	6	3
0	7555	6	3
0	7556	6	3
0	7597	6.05	3
0	7598	6.05	3
0	7599	6.05	3
0	7600	6.05	3
0	7853	6.1	3
0	7854	6.1	3
0	7855	6.1	3
0	7856	6.1	3
0	7857	6.1	3
0	7858	6.1	3
0	7859	6.1	3
0	7860	6.1	3
0	8143	6.15	3
0	8144	6.15	3
0	8145	6.15	3
0	8146	6.15	3
0	8365	6.2	3
0	8366	6.2	3
0	8367	6.2	3
0	8368	6.2	3
0	8369	6.2	3
0	8370	6.2	3
0	8371	6.2	3
0	8372	6.2	3
0	8449	6.25	3
0	8450	6.25	3
0	8451	6.25	3
0	8452	6.25	3
0	8485	6.3	3
0	8486	6.3	3
0	8487	6.3	3
0	8488	6.3	3
0	8489	6.3	3
0	8490	6.3	3
0	8491	6.3	3
0	8492	6.3	3
0	8533	6.35	3
0	8534	6.35	3
0	8535	6.35	3
0	8536	6.35	3
0	8569	6.4	3
0	8570	6.4	3
0	8571	6.4	3
0	8572	6.4	3
0	8573	6.4	3
0	8574	6.4	3
0	8575	6.4	3
0	8576	6.4	3
0	8617	6.45	3
0	8618	6.45	3
0	8619	6.45	3
0	8620	6.45	3
0	8657	6.5	3
0	8658	6.5	3
0	8659	6.5	3
0	8660	6.5	3
0	8661	6.5	3
0	8662	6.5	3
0	8663	6.5	3
0	8664	6.5	3
0	8705	6.55	3
0	8706	6.55	3
0	8707	6.55	3
0	8708	6.55	3
0	8741	6.6	3
0	8742	6.6	3
0	8743	6.6	3
0	8744	6.6	3
0	8745	6.6	3
0	8746	6.6	3
0	8747	6.6	3
0	8748	6.6	3
0	8995	6.65	3
0	8996	6.65	3
0	8997	6.65	3
0	8998	6.65	3
0	9122	6.7	3
0	9123	6.7	3
0	9124	6.7	3
0	9125	6.7	3
0	9126	6.7	3
0	9127	6.7	3
0	9128	6.7	3
0	9129	6.7	3
0	9170	6.75	3
0	9171	6.75	3
0	9172	6.75	3
0	9173	6.75	3
0	9206	6.8	3
0	9207	6.8	3
0	9208	6.8	3
0	9209	6.8	3
0	9210	6.8	3
0	9211	6.8	3
0	9212	6.8	3
0	9213	6.8	3
0	9254	6.85	3
0	9255	6.85	3
0	9256	6.85	3
0	9257	6.85	3
0	9290	6.9	3
0	9291	6.9	3
0	9292	6.9	3
0	9293	6.9	3
0	9294	6.9	3
0	9295	6.9	3
0	9296	6.9	3
0	9297	6.9	3
0	9338	6.95	3
0	9339	6.95	3
0	9340	6.95	3
0	9341	6.95	3
0	9375	7	3
0	9376	7	3
0	9377	7	3
0	9378	7	3
0	9379	7	3
0	9380	7	3
0	9381	7	3
0	9382	7	3
0	9423	7.05	3
0	9424	7.05	3
0	9425	7.05	3
0	9426	7.05	3
0	9463	7.1	3
0	9464	7.1	3
0	9465	7.1	3
0	9466	7.1	3
0	9467	7.1	3
0	9468	7.1	3
0	9469	7.1	3
0	9470	7.1	3
0	9516	7.15	3
0	9517	7.15	3
0	9518	7.15	3
0	9519	7.15	3
0	9758	7.2	3
0	9759	7.2	3
0	9760	7.2	3
0	9761	7.2	3
0	9762	7.2	3
0	9763	7.2	3
0	9764	7.2	3
0	9765	7.2	3
0	9939	7.25	3
0	9940	7.25	3
0	9941	7.25	3
0	9942	7.25	3
0	9975	7.3	3
0	9976	7.3	3
0	9977	7.3	3
0	9978	7.3	3
0	9979	7.3	3
0	9980	7.3	3
0	9981	7.3	3
0	9982	7.3	3
0	10023	7.35	3
0	10024	7.35	3
0	10025	7.35	3
0	10026	7.35	3
0	10059	7.4	3
0	10060	7.4	3
0	10061	7.4	3
0	10062	7.4	3
0	10063	7.4	3
0	10064	7.4	3
0	10065	7.4	3
0	10066	7.4	3
0	10107	7.45	3
0	10108	7.45	3
0	10109	7.45	3
0	10110	7.45	3
0	10143	7.5	3
0	10144	7.5	3
0	10145	7.5	3
0	10146	7.5	3
0	10147	7.5	3
0	10148	7.5	3
0	10149	7.5	3
0	10150	7.5	3
0	10191	7.55	3
0	10192	7.55	3
0	10193	7.55	3
0	10194	7.55	3
0	10227	7.6	3
0	10228	7.6	3
0	10229	7.6	3
0	10230	7.6	3
0	10231	7.6	3
0	10232	7.6	3
0	10233	7.6	3
0	10234	7.6	3
0	10275	7.65	3
0	10276	7.65	3
0	10277	7.65	3
0	10278	7.65	3
0	10311	7.7	3
0	10312	7.7	3
0	10313	7.7	3
0	10314	7.7	3
0	10315	7.7	3
0	10316	7.7	3
0	10317	7.7	3
0	10318	7.7	3
0	10563	7.75	3
0	10564	7.75	3
0	10565	7.75	3
0	10566	7.75	3
0	10671	7.8	3
0	10672	7.8	3
0	10673	7.8	3
0	10674	7.8	3
0	10675	7.8	3
0	10676	7.8	3
0	10677	7.8	3
0	10678	7.8	3
0	10719	7.85	3
0	10720	7.85	3
0	10721	7.85	3
0	10722	7.85	3
0	10755	7.9	3
0	10756	7.9	3
0	10757	7.9	3
0	10758	7.9	3
0	10759	7.9	3
0	10760	7.9	3
0	10761	7.9	3
0	10762	7.9	3
0	10803	7.95	3
0	10804	7.95	3
0	10805	7.95	3
0	10806	7.95	3
0	10839	8	3
0	10840	8	3
0	10841	8	3
0	10842	8	3
0	10843	8	3
0	10844	8	3
0	10845	8	3
0	10846	8	3
0	10887	8.05	3
0	10888	8.05	3
0	10889	8.05	3
0	10890	8.05	3
0	10927	8.1	3
0	10928	8.1	3
0	10929	8.1	3
0	10930	8.1	3
0	10931	8.1	3
0	10932	8.1	3
0	10933	8.1	3
0	10934	8.1	3
0	10980	8.15	3
0	10981	8.15	3
0	10982	8.15	3
0	10983	8.15	3
0	11016	8.2	3
0	11017	8.2	3
0	11018	8.2	3
0	11019	8.2	3
0	11020	8.2	3
0	11021	8.2	3
0	11022	8.2	3
0	11023	8.2	3
0	11064	8.25	3
0	11065	8.25	3
0	11066	8.25	3
0	11067	8.25	3
0	11306	8.3	3
0	11307	8.3	3
0	11308	8.3	3
0	11309	8.3	3
0	11310	8.3	3
0	11311	8.3	3
0	11312	8.3	3
0	11313	8.3	3
0	11487	8.35	3
0	11488	8.35	3
0	11489	8.35	3
0	11490	8.35	3
0	11523	8.4	3
0	11524	8.4	3
0	11525	8.4	3
0	11526	8.4	3
0	11527	8.4	3
0	11528	8.4	3
0	11529	8.4	3
0	11530	8.4	3
0	11571	8.45	3
0	11572	8.45	3
0	11573	8.45	3
0	11574	8.45	3
0	11607	8.5	3
0	11608	8.5	3
0	11609	8.5	3
0	11610	8.5	3
0	11611	8.5	3
0	11612	8.5	3
0	11613	8.5	3
0	11614	8.5	3
0	11655	8.55	3
0	11656	8.55	3
0	11657	8.55	3
0	11658	8.55	3
0	11691	8.6	3
0	11692	8.6	3
0	11693	8.6	3
0	11694	8.6	3
0	11695	8.6	3
0	11696	8.6	3
0	11697	8.6	3
0	11698	8.6	3
0	11739	8.65	3
0	11740	8.65	3
0	11741	8.65	3
0	11742	8.65	3
0	11775	8.7	3
0	11776	8.7	3
0	11777	8.7	3
0	11778	8.7	3
0	11779	8.7	3
0	11780	8.7	3
0	11781	8.7	3
0	11782	8.7	3
0	11823	8.75	3
0	11824	8.75	3
0	11825	8.75	3
0	11826	8.75	3
0	11859	8.8	3
0	11860	8.8	3
0	11861	8.8	3
0	11862	8.8	3
0	11863	8.8	3
0	11864	8.8	3
0	11865	8.8	3
0	11866	8.8	3
0	12111	8.85	3
0	12112	8.85	3
0	12113	8.85	3
0	12114	8.85	3
0	12219	8.9	3
0	12220	8.9	3
0	12221	8.9	3
0	12222	8.9	3
0	12223	8.9	3
0	12224	8.9	3
0	12225	8.9	3
0	12226	8.9	3
0	12267	8.95	3
0	12268	8.95	3
0	12269	8.95	3
0	12270	8.95	3
0	12303	9	3
0	12304	9	3
0	12305	9	3
0	12306	9	3
0	12307	9	3
0	12308	9	3
0	12309	9	3
0	12310	9	3
0	12351	9.05	3
0	12352	9.05	3
0	12353	9.05	3
0	12354	9.05	3
0	12391	9.1	3
0	12392	9.1	3
0	12393	9.1	3
0	12394	9.1	3
0	12395	9.1	3
0	12396	9.1	3
0	12397	9.1	3
0	12398	9.1	3
0	12444	9.15	3
0	12445	9.15	3
0	12446	9.15	3
0	12447	9.15	3
0	12480	9.2	3
0	12481	9.2	3
0	12482	9.2	3
0	12483	9.2	3
0	12484	9.2	3
0	12485	9.2	3
0	12486	9.2	3
0	12487	9.2	3
0	12528	9.25	3
0	12529	9.25	3
0	12530	9.25	3
0	12531	9.25	3
0	12564	9.3	3
0	12565	9.3	3
0	12566	9.3	3
0	12567	9.3	3
0	12568	9.3	3
0	12569	9.3	3
0	12570	9.3	3
0	12571	9.3	3
0	12612	9.35	3
0	12613	9.35	3
0	12614	9.35	3
0	12615	9.35	3
0	12854	9.4	3
0	12855	9.4	3
0	12856	9.4	3
0	12857	9.4	3
0	12858	9.4	3
0	12859	9.4	3
0	12860	9.4	3
0	12861	9.4	3
0	13035	9.45	3
0	13036	9.45	3
0	13037	9.45	3
0	13038	9.45	3
0	13071	9.5	3
0	13072	9.5	3
0	13073	9.5	3
0	13074	9.5	3
0	13075	9.5	3
0	13076	9.5	3
0	13077	9.5	3
0	13078	9.5	3
0	13119	9.55	3
0	13120	9.55	3
0	13121	9.55	3
0	13122	9.55	3
0	13155	9.6	3
0	13156	9.6	3
0	13157	9.6	3
0	13158	9.6	3
0	13159	9.6	3
0	13160	9.6	3
0	13161	9.6	3
0	13162	9.6	3
0	13203	9.65	3
0	13204	9.65	3
0	13205	9.65	3
0	13206	9.65	3
0	13239	9.7	3
0	13240	9.7	3
0	13241	9.7	3
0	13242	9.7	3
0	13243	9.7	3
0	13244	9.7	3
0	13245	9.7	3
0	13246	9.7	3
0	13287	9.75	3
0	13288	9.75	3
0	13289	9.75	3
0	13290	9.75	3
0	13323	9.8	3
0	13324	9.8	3
0	13325	9.8	3
0	13326	9.8	3
0	13327	9.8	3
0	13328	9.8	3
0	13329	9.8	3
0	13330	9.8	3
0	13371	9.85	3
0	13372	9.85	3
0	13373	9.85	3
0	13374	9.85	3
0	13407	9.9	3
0	13408	9.9	3
0	13409	9.9	3
0	13410	9.9	3
0	13411	9.9	3
0	13412	9.9	3
0	13413	9.9	3
0	13414	9.9	3
0	13659	9.95	3
0	13660	9.95	3
0	13661	9.95	3
0	13662	9.95	3
0	13767	10	3
0	13768	10	3
0	13769	10	3
0	13770	10	3
0	13771	10	3
0	13772	10	3
0	13773	10	3
0	13774	10	3
0	13815	10.05	3
0	13816	10.05	3
0	13817	10.05	3
0	13818	10.05	3
0	13855	10.1	3
0	13856	10.1	3
0	13857	10.1	3
0	13858	10.1	3
0	13859	10.1	3
0	13860	10.1	3
0	13861	10.1	3
0	13862	10.1	3
0	13908	10.15	3
0	13909	10.15	3
0	13910	10.15	3
0	13911	10.15	3
0	13944	10.2	3
0	13945	10.2	3
0	13946	10.2	3
0	13947	10.2	3
0	13948	10.2	3
0	13949	10.2	3
0	13950	10.2	3
0	13951	10.2	3
0	13992	10.25	3
0	13993	10.25	3
0	13994	10.25	3
0	13995	10.25	3
0	14028	10.3	3
0	14029	10.3	3
0	14030	10.3	3
0	14031	10.3	3
0	14032	10.3	3
0	14033	10.3	3
0	14034	10.3	3
0	14035	10.3	3
0	14076	10.35	3
0	14077	10.35	3
0	14078	10.35	3
0	14079	10.35	3
0	14112	10.4	3
0	14113	10.4	3
0	14114	10.4	3
0	14115	10.4	3
0	14116	10.4	3
0	14117	10.4	3
0	14118	10.4	3
0	14119	10.4	3
0	14160	10.45	3
0	14161	10.45	3
0	14162	10.45	3
0	14163	10.45	3
0	14402	10.5	3
0	14403	10.5	3
0	14404	10.5	3
0	14405	10.5	3
0	14406	10.5	3
0	14407	10.5	3
0	14408	10.5	3
0	14409	10.5	3
0	14583	10.55	3
0	14584	10.55	3
0	14585	10.55	3
0	14586	10.55	3
0	14619	10.6	3
0	14620	10.6	3
0	14621	10.6	3
0	14622	10.6	3
0	14623	10.6	3
0	14624	10.6	3
0	14625	10.6	3
0	14626	10.6	3
0	14667	10.65	3
0	14668	10.65	3
0	14669	10.65	3
0	14670	10.65	3
0	14703	10.7	3
0	14704	10.7	3
0	14705	10.7	3
0	14706	10.7	3
0	14707	10.7	3
0	14708	10.7	3
0	14709	10.7	3
0	14710	10.7	3
0	14751	10.75	3
0	14752	10.75	3
0	14753	10.75	3
0	14754	10.75	3
0	14787	10.8	3
0	14788	10.8	3
0	14789	10.8	3
0	14790	10.8	3
0	14791	10.8	3
0	14792	10.8	3
0	14793	10.8	3
0	14794	10.8	3
0	14835	10.85	3
0	14836	10.85	3
0	14837	10.85	3
0	14838	10.85	3
0	14871	10.9	3
0	14872	10.9	3
0	14873	10.9	3
0	14874	10.9	3
0	14875	10.9	3
0	14876	10.9	3
0	14877	10.9	3
0	14878	10.9	3
0	14919	10.95	3
0	14920	10.95	3
0	14921	10.95	3
0	14922	10.95	3
0	14955	11	3
0	14956	11	3
0	14957	11	3
0	14958	11	3
0	14959	11	3
0	14960	11	3
0	14961	11	3
0	14962	11	3
0	15207	11.05	3
0	15208	11.05	3
0	15209	11.05	3
0	15210	11.05	3
0	15319	11.1	3
0	15320	11.1	3
0	15321	11.1	3
0	15322	11.1	3
0	15323	11.1	3
0	15324	11.1	3
0	15325	11.1	3
0	15326	11.1	3
0	15372	11.15	3
0	15373	11.15	3
0	15374	11.15	3
0	15375	11.15	3
0	15408	11.2	3
0	15409	11.2	3
0	15410	11.2	3
0	15411	11.2	3
0	15412	11.2	3
0	15413	11.2	3
0	15414	11.2	3
0	15415	11.2	3
0	15456	11.25	3
0	15457	11.25	3
0	15458	11.25	3
0	15459	11.25	3
0	15492	11.3	3
0	15493	11.3	3
0	15494	11.3	3
0	15495	11.3	3
0	15496	11.3	3
0	15497	11.3	3
0	15498	11.3	3
0	15499	11.3	3
0	15540	11.35	3
0	15541	11.35	3
0	15542	11.35	3
0	15543	11.35	3
0	15576	11.4	3
0	15577	11.4	3
0	15578	11.4	3
0	15579	11.4	3
0	15580	11.4	3
0	15581	11.4	3
0	15582	11.4	3
0	15583	11.4	3
0	15624	11.45	3
0	15625	11.45	3
0	15626	11.45	3
0	15627	11.45	3
0	15663	11.5	3
0	15664	11.5	3
0	15665	11.5	3
0	15666	11.5	3
0	15667	11.5	3
0	15668	11.5	3
0	15669	11.5	3
0	15670	11.5	3
0	15711	11.55	3
0	15712	11.55	3
0	15713	11.55	3
0	15714	11.55	3
0	15953	11.6	3
0	15954	11.6	3
0	15955	11.6	3
0	15956	11.6	3
0	15957	11.6	3
0	15958	11.6	3
0	15959	11.6	3
0	15960	11.6	3
0	16134	11.65	3
0	16135	11.65	3
0	16136	11.65	3
0	16137	11.65	3
0	16170	11.7	3
0	16171	11.7	3
0	16172	11.7	3
0	16173	11.7	3
0	16174	11.7	3
0	16175	11.7	3
0	16176	11.7	3
0	16177	11.7	3
0	16218	11.75	3
0	16219	11.75	3
0	16220	11.75	3
0	16221	11.75	3
0	16254	11.8	3
0	16255	11.8	3
0	16256	11.8	3
0	16257	11.8	3
0	16258	11.8	3
0	16259	11.8	3
0	16260	11.8	3
0	16261	11.8	3
0	16302	11.85	3
0	16303	11.85	3
0	16304	11.85	3
0	16305	11.85	3
0	16338	11.9	3
0	16339	11.9	3
0	16340	11.9	3
0	16341	11.9	3
0	16342	11.9	3
0	16343	11.9	3
0	16344	11.9	3
0	16345	11.9	3
0	16386	11.95	3
0	16387	11.95	3
0	16388	11.95	3
0	16389	11.95	3
0	16423	12	3
0	16424	12	3
0	16425	12	3
0	16426	12	3
0	16427	12	3
0	16428	12	3
0	16429	12	3
0	16430	12	3
0	16471	12.05	3
0	16472	12.05	3
0	16473	12.05	3
0	16474	12.05	3
0	16511	12.1	3
0	16512	12.1	3
0	16513	12.1	3
0	16514	12.1	3
0	16515	12.1	3
0	16516	12.1	3
0	16517	12.1	3
0	16518	12.1	3
0	16770	12.15	3
0	16771	12.15	3
0	16772	12.15	3
0	16773	12.15	3
0	16939	12.2	3
0	16940	12.2	3
0	16941	12.2	3
0	16942	12.2	3
0	16943	12.2	3
0	16944	12.2	3
0	16945	12.2	3
0	16946	12.2	3
0	16987	12.25	3
0	16988	12.25	3
0	16989	12.25	3
0	16990	12.25	3
0	17023	12.3	3
0	17024	12.3	3
0	17025	12.3	3
0	17026	12.3	3
0	17027	12.3	3
0	17028	12.3	3
0	17029	12.3	3
0	17030	12.3	3
0	17071	12.35	3
0	17072	12.35	3
0	17073	12.35	3
0	17074	12.35	3
0	17107	12.4	3
0	17108	12.4	3
0	17109	12.4	3
0	17110	12.4	3
0	17111	12.4	3
0	17112	12.4	3
0	17113	12.4	3
0	17114	12.4	3
0	17155	12.45	3
0	17156	12.45	3
0	17157	12.45	3
0	17158	12.45	3
0	17191	12.5	3
0	17192	12.5	3
0	17193	12.5	3
0	17194	12.5	3
0	17195	12.5	3
0	17196	12.5	3
0	17197	12.5	3
0	17198	12.5	3
0	17239	12.55	3
0	17240	12.55	3
0	17241	12.55	3
0	17242	12.55	3
0	17275	12.6	3
0	17276	12.6	3
0	17277	12.6	3
0	17278	12.6	3
0	17279	12.6	3
0	17280	12.6	3
0	17281	12.6	3
0	17282	12.6	3
0	17323	12.65	3
0	17324	12.65	3
0	17325	12.65	3
0	17326	12.65	3
0	17563	12.7	3
0	17564	12.7	3
0	17565	12.7	3
0	17566	12.7	3
0	17567	12.7	3
0	17568	12.7	3
0	17569	12.7	3
0	17570	12.7	3
0	17683	12.75	3
0	17684	12.75	3
0	17685	12.75	3
0	17686	12.75	3
0	17719	12.8	3
0	17720	12.8	3
0	17721	12.8	3
0	17722	12.8	3
0	17723	12.8	3
0	17724	12.8	3
0	17725	12.8	3
0	17726	12.8	3
0	17767	12.85	3
0	17768	12.85	3
0	17769	12.85	3
0	17770	12.85	3
0	17803	12.9	3
0	17804	12.9	3
0	17805	12.9	3
0	17806	12.9	3
0	17807	12.9	3
0	17808	12.9	3
0	17809	12.9	3
0	17810	12.9	3
0	17851	12.95	3
0	17852	12.95	3
0	17853	12.95	3
0	17854	12.95	3
0	17887	13	3
0	17888	13	3
0	17889	13	3
0	17890	13	3
0	17891	13	3
0	17892	13	3
0	17893	13	3
0	17894	13	3
0	17935	13.05	3
0	17936	13.05	3
0	17937	13.05	3
0	17938	13.05	3
0	17975	13.1	3
0	17976	13.1	3
0	17977	13.1	3
0	17978	13.1	3
0	17979	13.1	3
0	17980	13.1	3
0	17981	13.1	3
0	17982	13.1	3
0	18028	13.15	3
0	18029	13.15	3
0	18030	13.15	3
0	18031	13.15	3
0	18064	13.2	3
0	18065	13.2	3
0	18066	13.2	3
0	18067	13.2	3
0	18068	13.2	3
0	18069	13.2	3
0	18070	13.2	3
0	18071	13.2	3
0	18318	13.25	3
0	18319	13.25	3
0	18320	13.25	3
0	18321	13.25	3
0	18487	13.3	3
0	18488	13.3	3
0	18489	13.3	3
0	18490	13.3	3
0	18491	13.3	3
0	18492	13.3	3
0	18493	13.3	3
0	18494	13.3	3
0	18535	13.35	3
0	18536	13.35	3
0	18537	13.35	3
0	18538	13.35	3
0	18571	13.4	3
0	18572	13.4	3
0	18573	13.4	3
0	18574	13.4	3
0	18575	13.4	3
0	18576	13.4	3
0	18577	13.4	3
0	18578	13.4	3
0	18619	13.45	3
0	18620	13.45	3
0	18621	13.45	3
0	18622	13.45	3
0	18655	13.5	3
0	18656	13.5	3
0	18657	13.5	3
0	18658	13.5	3
0	18659	13.5	3
0	18660	13.5	3
0	18661	13.5	3
0	18662	13.5	3
0	18703	13.55	3
0	18704	13.55	3
0	18705	13.55	3
0	18706	13.55	3
0	18739	13.6	3
0	18740	13.6	3
0	18741	13.6	3
0	18742	13.6	3
0	18743	13.6	3
0	18744	13.6	3
0	18745	13.6	3
0	18746	13.6	3
0	18787	13.65	3
0	18788	13.65	3
0	18789	13.65	3
0	18790	13.65	3
0	18823	13.7	3
0	18824	13.7	3
0	18825	13.7	3
0	18826	13.7	3
0	18827	13.7	3
0	18828	13.7	3
0	18829	13.7	3
0	18830	13.7	3
0	18871	13.75	3
0	18872	13.75	3
0	18873	13.75	3
0	18874	13.75	3
0	19111	13.8	3
0	19112	13.8	3
0	19113	13.8	3
0	19114	13.8	3
0	19115	13.8	3
0	19116	13.8	3
0	19117	13.8	3
0	19118	13.8	3
0	19231	13.85	3
0	19232	13.85	3
0	19233	13.85	3
0	19234	13.85	3
0	19267	13.9	3
0	19268	13.9	3
0	19269	13.9	3
0	19270	13.9	3
0	19271	13.9	3
0	19272	13.9	3
0	19273	13.9	3
0	19274	13.9	3
0	19315	13.95	3
0	19316	13.95	3
0	19317	13.95	3
0	19318	13.95	3
0	19351	14	3
0	19352	14	3
0	19353	14	3
0	19354	14	3
0	19355	14	3
0	19356	14	3
0	19357	14	3
0	19358	14	3
0	19399	14.05	3
0	19400	14.05	3
0	19401	14.05	3
0	19402	14.05	3
0	19439	14.1	3
0	19440	14.1	3
0	19441	14.1	3
0	19442	14.1	3
0	19443	14.1	3
0	19444	14.1	3
0	19445	14.1	3
0	19446	14.1	3
0	19492	14.15	3
0	19493	14.15	3
0	19494	14.15	3
0	19495	14.15	3
0	19528	14.2	3
0	19529	14.2	3
0	19530	14.2	3
0	19531	14.2	3
0	19532	14.2	3
0	19533	14.2	3
0	19534	14.2	3
0	19535	14.2	3
0	19576	14.25	3
0	19577	14.25	3
0	19578	14.25	3
0	19579	14.25	3
0	19612	14.3	3
0	19613	14.3	3
0	19614	14.3	3
0	19615	14.3	3
0	19616	14.3	3
0	19617	14.3	3
0	19618	14.3	3
0	19619	14.3	3
0	19866	14.35	3
0	19867	14.35	3
0	19868	14.35	3
0	19869	14.35	3
0	20035	14.4	3
0	20036	14.4	3
0	20037	14.4	3
0	20038	14.4	3
0	20039	14.4	3
0	20040	14.4	3
0	20041	14.4	3
0	20042	14.4	3
0	20083	14.45	3
0	20084	14.45	3
0	20085	14.45	3
0	20086	14.45	3
0	20119	14.5	3
0	20120	14.5	3
0	20121	14.5	3
0	20122	14.5	3
0	20123	14.5	3
0	20124	14.5	3
0	20125	14.5	3
0	20126	14.5	3
0	20167	14.55	3
0	20168	14.55	3
0	20169	14.55	3
0	20170	14.55	3
0	20203	14.6	3
0	20204	14.6	3
0	20205	14.6	3
0	20206	14.6	3
0	20207	14.6	3
0	20208	14.6	3
0	20209	14.6	3
0	20210	14.6	3
0	20251	14.65	3
0	20252	14.65	3
0	20253	14.65	3
0	20254	14.65	3
0	20287	14.7	3
0	20288	14.7	3
0	20289	14.7	3
0	20290	14.7	3
0	20291	14.7	3
0	20292	14.7	3
0	20293	14.7	3
0	20294	14.7	3
0	20335	14.75	3
0	20336	14.75	3
0	20337	14.75	3
0	20338	14.75	3
0	20371	14.8	3
0	20372	14.8	3
0	20373	14.8	3
0	20374	14.8	3
0	20375	14.8	3
0	20376	14.8	3
0	20377	14.8	3
0	20378	14.8	3
0	20419	14.85	3
0	20420	14.85	3
0	20421	14.85	3
0	20422	14.85	3
0	20659	14.9	3
0	20660	14.9	3
0	20661	14.9	3
0	20662	14.9	3
0	20663	14.9	3
0	20664	14.9	3
0	20665	14.9	3
0	20666	14.9	3
0	20779	14.95	3
0	20780	14.95	3
0	20781	14.95	3
0	20782	14.95	3
0	20815	15	3
0	20816	15	3
0	20817	15	3
0	20818	15	3
0	20819	15	3
0	20820	15	3
0	20821	15	3
0	20822	15	3
0	20863	15.05	3
0	20864	15.05	3
0	20865	15.05	3
0	20866	15.05	3
0	20903	15.1	3
0	20904	15.1	3
0	20905	15.1	3
0	20906	15.1	3
0	20907	15.1	3
0	20908	15.1	3
0	20909	15.1	3
0	20910	15.1	3
0	20956	15.15	3
0	20957	15.15	3
0	20958	15.15	3
0	20959	15.15	3
0	20992	15.2	3
0	20993	15.2	3
0	20994	15.2	3
0	20995	15.2	3
0	20996	15.2	3
0	20997	15.2	3
0	20998	15.2	3
0	20999	15.2	3
0	21040	15.25	3
0	21041	15.25	3
0	21042	15.25	3
0	21043	15.25	3
0	21076	15.3	3
0	21077	15.3	3
0	21078	15.3	3
0	21079	15.3	3
0	21080	15.3	3
0	21081	15.3	3
0	21082	15.3	3
0	21083	15.3	3
0	21124	15.35	3
0	21125	15.35	3
0	21126	15.35	3
0	21127	15.35	3
0	21160	15.4	3
0	21161	15.4	3
0	21162	15.4	3
0	21163	15.4	3
0	21164	15.4	3
0	21165	15.4	3
0	21166	15.4	3
0	21167	15.4	3
0	21414	15.45	3
0	21415	15.45	3
0	21416	15.45	3
0	21417	15.45	3
0	21583	15.5	3
0	21584	15.5	3
0	21585	15.5	3
0	21586	15.5	3
0	21587	15.5	3
0	21588	15.5	3
0	21589	15.5	3
0	21590	15.5	3
0	21631	15.55	3
0	21632	15.55	3
0	21633	15.55	3
0	21634	15.55	3
0	21667	15.6	3
0	21668	15.6	3
0	21669	15.6	3
0	21670	15.6	3
0	21671	15.6	3
0	21672	15.6	3
0	21673	15.6	3
0	21674	15.6	3
0	21715	15.65	3
0	21716	15.65	3
0	21717	15.65	3
0	21718	15.65	3
0	21751	15.7	3
0	21752	15.7	3
0	21753	15.7	3
0	21754	15.7	3
0	21755	15.7	3
0	21756	15.7	3
0	21757	15.7	3
0	21758	15.7	3
0	21799	15.75	3
0	21800	15.75	3
0	21801	15.75	3
0	21802	15.75	3
0	21835	15.8	3
0	21836	15.8	3
0	21837	15.8	3
0	21838	15.8	3
0	21839	15.8	3
0	21840	15.8	3
0	21841	15.8	3
0	21842	15.8	3
0	21883	15.85	3
0	21884	15.85	3
0	21885	15.85	3
0	21886	15.85	3
0	21919	15.9	3
0	21920	15.9	3
0	21921	15.9	3
0	21922	15.9	3
0	21923	15.9	3
0	21924	15.9	3
0	21925	15.9	3
0	21926	15.9	3
0	21967	15.95	3
0	21968	15.95	3
0	21969	15.95	3
0	21970	15.95	3
0	22207	16	3
0	22208	16	3
0	22209	16	3
0	22210	16	3
0	22211	16	3
0	22212	16	3
0	22213	16	3
0	22214	16	3
0	22327	16.05	3
0	22328	16.05	3
0	22329	16.05	3
0	22330	16.05	3
0	22367	16.1	3
0	22368	16.1	3
0	22369	16.1	3
0	22370	16.1	3
0	22371	16.1	3
0	22372	16.1	3
0	22373	16.1	3
0	22374	16.1	3
0	22420	16.15	3
0	22421	16.15	3
0	22422	16.15	3
0	22423	16.15	3
0	22456	16.2	3
0	22457	16.2	3
0	22458	16.2	3
0	22459	16.2	3
0	22460	16.2	3
0	22461	16.2	3
0	22462	16.2	3
0	22463	16.2	3
0	22504	16.25	3
0	22505	16.25	3
0	22506	16.25	3
0	22507	16.25	3
0	22540	16.3	3
0	22541	16.3	3
0	22542	16.3	3
0	22543	16.3	3
0	22544	16.3	3
0	22545	16.3	3
0	22546	16.3	3
0	22547	16.3	3
0	22588	16.35	3
0	22589	16.35	3
0	22590	16.35	3
0	22591	16.35	3
0	22624	16.4	3
0	22625	16.4	3
0	22626	16.4	3
0	22627	16.4	3
0	22628	16.4	3
0	22629	16.4	3
0	22630	16.4	3
0	22631	16.4	3
0	22672	16.45	3
0	22673	16.45	3
0	22674	16.45	3
0	22675	16.45	3
0	22711	16.5	3
0	22712	16.5	3
0	22713	16.5	3
0	22714	16.5	3
0	22715	16.5	3
0	22716	16.5	3
0	22717	16.5	3
0	22718	16.5	3
0	22965	16.55	3
0	22966	16.55	3
0	22967	16.55	3
0	22968	16.55	3
0	23134	16.6	3
0	23135	16.6	3
0	23136	16.6	3
0	23137	16.6	3
0	23138	16.6	3
0	23139	16.6	3
0	23140	16.6	3
0	23141	16.6	3
0	23182	16.65	3
0	23183	16.65	3
0	23184	16.65	3
0	23185	16.65	3
0	23218	16.7	3
0	23219	16.7	3
0	23220	16.7	3
0	23221	16.7	3
0	23222	16.7	3
0	23223	16.7	3
0	23224	16.7	3
0	23225	16.7	3
0	23266	16.75	3
0	23267	16.75	3
0	23268	16.75	3
0	23269	16.75	3
0	23302	16.8	3
0	23303	16.8	3
0	23304	16.8	3
0	23305	16.8	3
0	23306	16.8	3
0	23307	16.8	3
0	23308	16.8	3
0	23309	16.8	3
0	23350	16.85	3
0	23351	16.85	3
0	23352	16.85	3
0	23353	16.85	3
0	23386	16.9	3
0	23387	16.9	3
0	23388	16.9	3
0	23389	16.9	3
0	23390	16.9	3
0	23391	16.9	3
0	23392	16.9	3
0	23393	16.9	3
0	23434	16.95	3
0	23435	16.95	3
0	23436	16.95	3
0	23437	16.95	3
0	23471	17	3
0	23472	17	3
0	23473	17	3
0	23474	17	3
0	23475	17	3
0	23476	17	3
0	23477	17	3
0	23478	17	3
0	23519	17.05	3
0	23520	17.05	3
0	23521	17.05	3
0	23522	17.05	3
0	23763	17.1	3
0	23764	17.1	3
0	23765	17.1	3
0	23766	17.1	3
0	23767	17.1	3
0	23768	17.1	3
0	23769	17.1	3
0	23770	17.1	3
0	23930	17.15	3
0	23931	17.15	3
0	23932	17.15	3
0	23933	17.15	3
0	23966	17.2	3
0	23967	17.2	3
0	23968	17.2	3
0	23969	17.2	3
0	23970	17.2	3
0	23971	17.2	3
0	23972	17.2	3
0	23973	17.2	3
0	24014	17.25	3
0	24015	17.25	3
0	24016	17.25	3
0	24017	17.25	3
0	24050	17.3	3
0	24051	17.3	3
0	24052	17.3	3
0	24053	17.3	3
0	24054	17.3	3
0	24055	17.3	3
0	24056	17.3	3
0	24057	17.3	3
0	24098	17.35	3
0	24099	17.35	3
0	24100	17.35	3
0	24101	17.35	3
0	24134	17.4	3
0	24135	17.4	3
0	24136	17.4	3
0	24137	17.4	3
0	24138	17.4	3
0	24139	17.4	3
0	24140	17.4	3
0	24141	17.4	3
0	24182	17.45	3
0	24183	17.45	3
0	24184	17.45	3
0	24185	17.45	3
0	24218	17.5	3
0	24219	17.5	3
0	24220	17.5	3
0	24221	17.5	3
0	24222	17.5	3
0	24223	17.5	3
0	24224	17.5	3
0	24225	17.5	3
0	24266	17.55	3
0	24267	17.55	3
0	24268	17.55	3
0	24269	17.55	3
0	24302	17.6	3
0	24303	17.6	3
0	24304	17.6	3
0	24305	17.6	3
0	24306	17.6	3
0	24307	17.6	3
0	24308	17.6	3
0	24309	17.6	3
0	24556	17.65	3
0	24557	17.65	3
0	24558	17.65	3
0	24559	17.65	3
0	24683	17.7	3
0	24684	17.7	3
0	24685	17.7	3
0	24686	17.7	3
0	24687	17.7	3
0	24688	17.7	3
0	24689	17.7	3
0	24690	17.7	3
0	24731	17.75	3
0	24732	17.75	3
0	24733	17.75	3
0	24734	17.75	3
0	24767	17.8	3
0	24768	17.8	3
0	24769	17.8	3
0	24770	17.8	3
0	24771	17.8	3
0	24772	17.8	3
0	24773	17.8	3
0	24774	17.8	3
0	24815	17.85	3
0	24816	17.85	3
0	24817	17.85	3
0	24818	17.85	3
0	24851	17.9	3
0	24852	17.9	3
0	24853	17.9	3
0	24854	17.9	3
0	24855	17.9	3
0	24856	17.9	3
0	24857	17.9	3
0	24858	17.9	3
0	24899	17.95	3
0	24900	17.95	3
0	24901	17.95	3
0	24902	17.95	3
0	24935	18	3
0	24936	18	3
0	24937	18	3
0	24938	18	3
0	24939	18	3
0	24940	18	3
0	24941	18	3
0	24942	18	3
0	24983	18.05	3
0	24984	18.05	3
0	24985	18.05	3
0	24986	18.05	3
0	25023	18.1	3
0	25024	18.1	3
0	25025	18.1	3
0	25026	18.1	3
0	25027	18.1	3
0	25028	18.1	3
0	25029	18.1	3
0	25030	18.1	3
0	25076	18.15	3
0	25077	18.15	3
0	25078	18.15	3
0	25079	18.15	3
0	25318	18.2	3
0	25319	18.2	3
0	25320	18.2	3
0	25321	18.2	3
0	25322	18.2	3
0	25323	18.2	3
0	25324	18.2	3
0	25325	18.2	3
0	25499	18.25	3
0	25500	18.25	3
0	25501	18.25	3
0	25502	18.25	3
0	25535	18.3	3
0	25536	18.3	3
0	25537	18.3	3
0	25538	18.3	3
0	25539	18.3	3
0	25540	18.3	3
0	25541	18.3	3
0	25542	18.3	3
0	25583	18.35	3
0	25584	18.35	3
0	25585	18.35	3
0	25586	18.35	3
0	25619	18.4	3
0	25620	18.4	3
0	25621	18.4	3
0	25622	18.4	3
0	25623	18.4	3
0	25624	18.4	3
0	25625	18.4	3
0	25626	18.4	3
0	25667	18.45	3
0	25668	18.45	3
0	25669	18.45	3
0	25670	18.45	3
0	25703	18.5	3
0	25704	18.5	3
0	25705	18.5	3
0	25706	18.5	3
0	25707	18.5	3
0	25708	18.5	3
0	25709	18.5	3
0	25710	18.5	3
0	25751	18.55	3
0	25752	18.55	3
0	25753	18.55	3
0	25754	18.55	3
0	25787	18.6	3
0	25788	18.6	3
0	25789	18.6	3
0	25790	18.6	3
0	25791	18.6	3
0	25792	18.6	3
0	25793	18.6	3
0	25794	18.6	3
0	25835	18.65	3
0	25836	18.65	3
0	25837	18.65	3
0	25838	18.65	3
0	25871	18.7	3
0	25872	18.7	3
0	25873	18.7	3
0	25874	18.7	3
0	25875	18.7	3
0	25876	18.7	3
0	25877	18.7	3
0	25878	18.7	3
0	26123	18.75	3
0	26124	18.75	3
0	26125	18.75	3
0	26126	18.75	3
0	26231	18.8	3
0	26232	18.8	3
0	26233	18.8	3
0	26234	18.8	3
0	26235	18.8	3
0	26236	18.8	3
0	26237	18.8	3
0	26238	18.8	3
0	26279	18.85	3
0	26280	18.85	3
0	26281	18.85	3
0	26282	18.85	3
0	26315	18.9	3
0	26316	18.9	3
0	26317	18.9	3
0	26318	18.9	3
0	26319	18.9	3
0	26320	18.9	3
0	26321	18.9	3
0	26322	18.9	3
0	26363	18.95	3
0	26364	18.95	3
0	26365	18.95	3
0	26366	18.95	3
0	26399	19	3
0	26400	19	3
0	26401	19	3
0	26402	19	3
0	26403	19	3
0	26404	19	3
0	26405	19	3
0	26406	19	3
0	26447	19.05	3
0	26448	19.05	3
0	26449	19.05	3
0	26450	19.05	3
0	26487	19.1	3
0	26488	19.1	3
0	26489	19.1	3
0	26490	19.1	3
0	26491	19.1	3
0	26492	19.1	3
0	26493	19.1	3
0	26494	19.1	3
0	26540	19.15	3
0	26541	19.15	3
0	26542	19.15	3
0	26543	19.15	3
0	26576	19.2	3
0	26577	19.2	3
0	26578	19.2	3
0	26579	19.2	3
0	26580	19.2	3
0	26581	19.2	3
0	26582	19.2	3
0	26583	19.2	3
0	26624	19.25	3
0	26625	19.25	3
0	26626	19.25	3
0	26627	19.25	3
0	26866	19.3	3
0	26867	19.3	3
0	26868	19.3	3
0	26869	19.3	3
0	26870	19.3	3
0	26871	19.3	3
0	26872	19.3	3
0	26873	19.3	3
0	27047	19.35	3
0	27048	19.35	3
0	27049	19.35	3
0	27050	19.35	3
0	27083	19.4	3
0	27084	19.4	3
0	27085	19.4	3
0	27086	19.4	3
0	27087	19.4	3
0	27088	19.4	3
0	27089	19.4	3
0	27090	19.4	3
0	27131	19.45	3
0	27132	19.45	3
0	27133	19.45	3
0	27134	19.45	3
0	27167	19.5	3
0	27168	19.5	3
0	27169	19.5	3
0	27170	19.5	3
0	27171	19.5	3
0	27172	19.5	3
0	27173	19.5	3
0	27174	19.5	3
0	27215	19.55	3
0	27216	19.55	3
0	27217	19.55	3
0	27218	19.55	3
0	27251	19.6	3
0	27252	19.6	3
0	27253	19.6	3
0	27254	19.6	3
0	27255	19.6	3
0	27256	19.6	3
0	27257	19.6	3
0	27258	19.6	3
0	27299	19.65	3
0	27300	19.65	3
0	27301	19.65	3
0	27302	19.65	3
0	27335	19.7	3
0	27336	19.7	3
0	27337	19.7	3
0	27338	19.7	3
0	27339	19.7	3
0	27340	19.7	3
0	27341	19.7	3
0	27342	19.7	3
0	27383	19.75	3
0	27384	19.75	3
0	27385	19.75	3
0	27386	19.75	3
0	27419	19.8	3
0	27420	19.8	3
0	27421	19.8	3
0	27422	19.8	3
0	27423	19.8	3
0	27424	19.8	3
0	27425	19.8	3
0	27426	19.8	3
0	27671	19.85	3
0	27672	19.85	3
0	27673	19.85	3
0	27674	19.85	3
0	27779	19.9	3
0	27780	19.9	3
0	27781	19.9	3
0	27782	19.9	3
0	27783	19.9	3
0	27784	19.9	3
0	27785	19.9	3
0	27786	19.9	3
0	27827	19.95	3
0	27828	19.95	3
0	27829	19.95	3
0	27830	19.95	3
0	27863	20	3
0	27864	20	3
0	27865	20	3
0	27866	20	3
0	27867	20	3
0	27868	20	3
0	27869	20	3
0	27870	20	3
0	27911	20.05	3
0	27912	20.05	3
0	27913	20.05	3
0	27914	20.05	3
0	27951	20.1	3
0	27952	20.1	3
0	27953	20.1	3
0	27954	20.1	3
0	27955	20.1	3
0	27956	20.1	3
0	27957	20.1	3
0	27958	20.1	3
0	28004	20.15	3
0	28005	20.15	3
0	28006	20.15	3
0	28007	20.15	3
0	28040	20.2	3
0	28041	20.2	3
0	28042	20.2	3
0	28043	20.2	3
0	28044	20.2	3
0	28045	20.2	3
0	28046	20.2	3
0	28047	20.2	3
0	28088	20.25	3
0	28089	20.25	3
0	28090	20.25	3
0	28091	20.25	3
0	28124	20.3	3
0	28125	20.3	3
0	28126	20.3	3
0	28127	20.3	3
0	28128	20.3	3
0	28129	20.3	3
0	28130	20.3	3
0	28131	20.3	3
0	28172	20.35	3
0	28173	20.35	3
0	28174	20.35	3
0	28175	20.35	3
0	28414	20.4	3
0	28415	20.4	3
0	28416	20.4	3
0	28417	20.4	3
0	28418	20.4	3
0	28419	20.4	3
0	28420	20.4	3
0	28421	20.4	3
0	28595	20.45	3
0	28596	20.45	3
0	28597	20.45	3
0	28598	20.45	3
0	28631	20.5	3
0	28632	20.5	3
0	28633	20.5	3
0	28634	20.5	3
0	28635	20.5	3
0	28636	20.5	3
0	28637	20.5	3
0	28638	20.5	3
0	28679	20.55	3
0	28680	20.55	3
0	28681	20.55	3
0	28682	20.55	3
0	28715	20.6	3
0	28716	20.6	3
0	28717	20.6	3
0	28718	20.6	3
0	28719	20.6	3
0	28720	20.6	3
0	28721	20.6	3
0	28722	20.6	3
0	28763	20.65	3
0	28764	20.65	3
0	28765	20.65	3
0	28766	20.65	3
0	28799	20.7	3
0	28800	20.7	3
0	28801	20.7	3
0	28802	20.7	3
0	28803	20.7	3
0	28804	20.7	3
0	28805	20.7	3
0	28806	20.7	3
0	28847	20.75	3
0	28848	20.75	3
0	28849	20.75	3
0	28850	20.75	3
0	28883	20.8	3
0	28884	20.8	3
0	28885	20.8	3
0	28886	20.8	3
0	28887	20.8	3
0	28888	20.8	3
0	28889	20.8	3
0	28890	20.8	3
0	28931	20.85	3
0	28932	20.85	3
0	28933	20.85	3
0	28934	20.85	3
0	28967	20.9	3
0	28968	20.9	3
0	28969	20.9	3
0	28970	20.9	3
0	28971	20.9	3
0	28972	20.9	3
0	28973	20.9	3
0	28974	20.9	3
0	29219	20.95	3
0	29220	20.95	3
0	29221	20.95	3
0	29222	20.95	3
0	29327	21	3
0	29328	21	3
0	29329	21	3
0	29330	21	3
0	29331	21	3
0	29332	21	3
0	29333	21	3
0	29334	21	3
0	29375	21.05	3
0	29376	21.05	3
0	29377	21.05	3
0	29378	21.05	3
0	29415	21.1	3
0	29416	21.1	3
0	29417	21.1	3
0	29418	21.1	3
0	29419	21.1	3
0	29420	21.1	3
0	29421	21.1	3
0	29422	21.1	3
0	29468	21.15	3
0	29469	21.15	3
0	29470	21.15	3
0	29471	21.15	3
0	29504	21.2	3
0	29505	21.2	3
0	29506	21.2	3
0	29507	21.2	3
0	29508	21.2	3
0	29509	21.2	3
0	29510	21.2	3
0	29511	21.2	3
0	29552	21.25	3
0	29553	21.25	3
0	29554	21.25	3
0	29555	21.25	3
0	29588	21.3	3
0	29589	21.3	3
0	29590	21.3	3
0	29591	21.3	3
0	29592	21.3	3
0	29593	21.3	3
0	29594	21.3	3
0	29595	21.3	3
0	29636	21.35	3
0	29637	21.35	3
0	29638	21.35	3
0	29639	21.35	3
0	29672	21.4	3
0	29673	21.4	3
0	29674	21.4	3
0	29675	21.4	3
0	29676	21.4	3
0	29677	21.4	3
0	29678	21.4	3
0	29679	21.4	3
0	29720	21.45	3
0	29721	21.45	3
0	29722	21.45	3
0	29723	21.45	3
0	29965	21.5	3
0	29966	21.5	3
0	29967	21.5	3
0	29968	21.5	3
0	29969	21.5	3
0	29970	21.5	3
0	29971	21.5	3
0	29972	21.5	3
0	30146	21.55	3
0	30147	21.55	3
0	30148	21.55	3
0	30149	21.55	3
0	30182	21.6	3
0	30183	21.6	3
0	30184	21.6	3
0	30185	21.6	3
0	30186	21.6	3
0	30187	21.6	3
0	30188	21.6	3
0	30189	21.6	3
0	30230	21.65	3
0	30231	21.65	3
0	30232	21.65	3
0	30233	21.65	3
0	30266	21.7	3
0	30267	21.7	3
0	30268	21.7	3
0	30269	21.7	3
0	30270	21.7	3
0	30271	21.7	3
0	30272	21.7	3
0	30273	21.7	3
0	30314	21.75	3
0	30315	21.75	3
0	30316	21.75	3
0	30317	21.75	3
0	30350	21.8	3
0	30351	21.8	3
0	30352	21.8	3
0	30353	21.8	3
0	30354	21.8	3
0	30355	21.8	3
0	30356	21.8	3
0	30357	21.8	3
0	30398	21.85	3
0	30399	21.85	3
0	30400	21.85	3
0	30401	21.85	3
0	30434	21.9	3
0	30435	21.9	3
0	30436	21.9	3
0	30437	21.9	3
0	30438	21.9	3
0	30439	21.9	3
0	30440	21.9	3
0	30441	21.9	3
0	30482	21.95	3
0	30483	21.95	3
0	30484	21.95	3
0	30485	21.95	3
0	30519	22	3
0	30520	22	3
0	30521	22	3
0	30522	22	3
0	30523	22	3
0	30524	22	3
0	30525	22	3
0	30526	22	3
0	30771	22.05	3
0	30772	22.05	3
0	30773	22.05	3
0	30774	22.05	3
0	30883	22.1	3
0	30884	22.1	3
0	30885	22.1	3
0	30886	22.1	3
0	30887	22.1	3
0	30888	22.1	3
0	30889	22.1	3
0	30890	22.1	3
0	30936	22.15	3
0	30937	22.15	3
0	30938	22.15	3
0	30939	22.15	3
0	30972	22.2	3
0	30973	22.2	3
0	30974	22.2	3
0	30975	22.2	3
0	30976	22.2	3
0	30977	22.2	3
0	30978	22.2	3
0	30979	22.2	3
0	31020	22.25	3
0	31021	22.25	3
0	31022	22.25	3
0	31023	22.25	3
0	31056	22.3	3
0	31057	22.3	3
0	31058	22.3	3
0	31059	22.3	3
0	31060	22.3	3
0	31061	22.3	3
0	31062	22.3	3
0	31063	22.3	3
0	31104	22.35	3
0	31105	22.35	3
0	31106	22.35	3
0	31107	22.35	3
0	31140	22.4	3
0	31141	22.4	3
0	31142	22.4	3
0	31143	22.4	3
0	31144	22.4	3
0	31145	22.4	3
0	31146	22.4	3
0	31147	22.4	3
0	31188	22.45	3
0	31189	22.45	3
0	31190	22.45	3
0	31191	22.45	3
0	31224	22.5	3
0	31225	22.5	3
0	31226	22.5	3
0	31227	22.5	3
0	31228	22.5	3
0	31229	22.5	3
0	31230	22.5	3
0	31231	22.5	3
0	31272	22.55	3
0	31273	22.55	3
0	31274	22.55	3
0	31275	22.55	3
0	31514	22.6	3
0	31515	22.6	3
0	31516	22.6	3
0	31517	22.6	3
0	31518	22.6	3
0	31519	22.6	3
0	31520	22.6	3
0	31521	22.6	3
0	31695	22.65	3
0	31696	22.65	3
0	31697	22.65	3
0	31698	22.65	3
0	31731	22.7	3
0	31732	22.7	3
0	31733	22.7	3
0	31734	22.7	3
0	31735	22.7	3
0	31736	22.7	3
0	31737	22.7	3
0	31738	22.7	3
0	31779	22.75	3
0	31780	22.75	3
0	31781	22.75	3
0	31782	22.75	3
0	31815	22.8	3
0	31816	22.8	3
0	31817	22.8	3
0	31818	22.8	3
0	31819	22.8	3
0	31820	22.8	3
0	31821	22.8	3
0	31822	22.8	3
0	31863	22.85	3
0	31864	22.85	3
0	31865	22.85	3
0	31866	22.85	3
0	31899	22.9	3
0	31900	22.9	3
0	31901	22.9	3
0	31902	22.9	3
0	31903	22.9	3
0	31904	22.9	3
0	31905	22.9	3
0	31906	22.9	3
0	31947	22.95	3
0	31948	22.95	3
0	31949	22.95	3
0	31950	22.95	3
0	31983	23	3
0	31984	23	3
0	31985	23	3
0	31986	23	3
0	31987	23	3
0	31988	23	3
0	31989	23	3
0	31990	23	3
0	32031	23.05	3
0	32032	23.05	3
0	32033	23.05	3
0	32034	23.05	3
0	32071	23.1	3
0	32072	23.1	3
0	32073	23.1	3
0	32074	23.1	3
0	32075	23.1	3
0	32076	23.1	3
0	32077	23.1	3
0	32078	23.1	3
0	32330	23.15	3
0	32331	23.15	3
0	32332	23.15	3
0	32333	23.15	3
0	32499	23.2	3
0	32500	23.2	3
0	32501	23.2	3
0	32502	23.2	3
0	32503	23.2	3
0	32504	23.2	3
0	32505	23.2	3
0	32506	23.2	3
0	32547	23.25	3
0	32548	23.25	3
0	32549	23.25	3
0	32550	23.25	3
0	32583	23.3	3
0	32584	23.3	3
0	32585	23.3	3
0	32586	23.3	3
0	32587	23.3	3
0	32588	23.3	3
0	32589	23.3	3
0	32590	23.3	3
0	32631	23.35	3
0	32632	23.35	3
0	32633	23.35	3
0	32634	23.35	3
0	32667	23.4	3
0	32668	23.4	3
0	32669	23.4	3
0	32670	23.4	3
0	32671	23.4	3
0	32672	23.4	3
0	32673	23.4	3
0	32674	23.4	3
0	32715	23.45	3
0	32716	23.45	3
0	32717	23.45	3
0	32718	23.45	3
0	32751	23.5	3
0	32752	23.5	3
0	32753	23.5	3
0	32754	23.5	3
0	32755	23.5	3
0	32756	23.5	3
0	32757	23.5	3
0	32758	23.5	3
0	32799	23.55	3
0	32800	23.55	3
0	32801	23.55	3
0	32802	23.55	3
0	32835	23.6	3
0	32836	23.6	3
0	32837	23.6	3
0	32838	23.6	3
0	32839	23.6	3
0	32840	23.6	3
0	32841	23.6	3
0	32842	23.6	3
0	32883	23.65	3
0	32884	23.65	3
0	32885	23.65	3
0	32886	23.65	3
0	33123	23.7	3
0	33124	23.7	3
0	33125	23.7	3
0	33126	23.7	3
0	33127	23.7	3
0	33128	23.7	3
0	33129	23.7	3
0	33130	23.7	3
0	33243	23.75	3
0	33244	23.75	3
0	33245	23.75	3
0	33246	23.75	3
0	33279	23.8	3
0	33280	23.8	3
0	33281	23.8	3
0	33282	23.8	3
0	33283	23.8	3
0	33284	23.8	3
0	33285	23.8	3
0	33286	23.8	3
0	33327	23.85	3
0	33328	23.85	3
0	33329	23.85	3
0	33330	23.85	3
0	33363	23.9	3
0	33364	23.9	3
0	33365	23.9	3
0	33366	23.9	3
0	33367	23.9	3
0	33368	23.9	3
0	33369	23.9	3
0	33370	23.9	3
0	33411	23.95	3
0	33412	23.95	3
0	33413	23.95	3
0	33414	23.95	3
0	33447	24	3
0	33448	24	3
0	33449	24	3
0	33450	24	3
0	33451	24	3
0	33452	24	3
0	33453	24	3
0	33454	24	3
0	33495	24.05	3
0	33496	24.05	3
0	33497	24.05	3
0	33498	24.05	3
0	33535	24.1	3
0	33536	24.1	3
0	33537	24.1	3
0	33538	24.1	3
0	33539	24.1	3
0	33540	24.1	3
0	33541	24.1	3
0	33542	24.1	3
0	33588	24.15	3
0	33589	24.15	3
0	33590	24.15	3
0	33591	24.15	3
0	33624	24.2	3
0	33625	24.2	3
0	33626	24.2	3
0	33627	24.2	3
0	33628	24.2	3
0	33629	24.2	3
0	33630	24.2	3
0	33631	24.2	3
0	33878	24.25	3
0	33879	24.25	3
0	33880	24.25	3
0	33881	24.25	3
0	34047	24.3	3
0	34048	24.3	3
0	34049	24.3	3
0	34050	24.3	3
0	34051	24.3	3
0	34052	24.3	3
0	34053	24.3	3
0	34054	24.3	3
0	34095	24.35	3
0	34096	24.35	3
0	34097	24.35	3
0	34098	24.35	3
0	34131	24.4	3
0	34132	24.4	3
0	34133	24.4	3
0	34134	24.4	3
0	34135	24.4	3
0	34136	24.4	3
0	34137	24.4	3
0	34138	24.4	3
0	34179	24.45	3
0	34180	24.45	3
0	34181	24.45	3
0	34182	24.45	3
0	34215	24.5	3
0	34216	24.5	3
0	34217	24.5	3
0	34218	24.5	3
0	34219	24.5	3
0	34220	24.5	3
0	34221	24.5	3
0	34222	24.5	3
0	34263	24.55	3
0	34264	24.55	3
0	34265	24.55	3
0	34266	24.55	3
0	34299	24.6	3
0	34300	24.6	3
0	34301	24.6	3
0	34302	24.6	3
0	34303	24.6	3
0	34304	24.6	3
0	34305	24.6	3
0	34306	24.6	3
0	34347	24.65	3
0	34348	24.65	3
0	34349	24.65	3
0	34350	24.65	3
0	34383	24.7	3
0	34384	24.7	3
0	34385	24.7	3
0	34386	24.7	3
0	34387	24.7	3
0	34388	24.7	3
0	34389	24.7	3
0	34390	24.7	3
0	34431	24.75	3
0	34432	24.75	3
0	34433	24.75	3
0	34434	24.75	3
0	34671	24.8	3
0	34672	24.8	3
0	34673	24.8	3
0	34674	24.8	3
0	34675	24.8	3
0	34676	24.8	3
0	34677	24.8	3
0	34678	24.8	3
0	34791	24.85	3
0	34792	24.85	3
0	34793	24.85	3
0	34794	24.85	3
0	34827	24.9	3
0	34828	24.9	3
0	34829	24.9	3
0	34830	24.9	3
0	34831	24.9	3
0	34832	24.9	3
0	34833	24.9	3
0	34834	24.9	3
0	34875	24.95	3
0	34876	24.95	3
0	34877	24.95	3
0	34878	24.95	3
0	34911	25	3
0	34912	25	3
0	34913	25	3
0	34914	25	3
0	34915	25	3
0	34916	25	3
0	34917	25	3
0	34918	25	3
0	34959	25.05	3
0	34960	25.05	3
0	34961	25.05	3
0	34962	25.05	3
0	34999	25.1	3
0	35000	25.1	3
0	35001	25.1	3
0	35002	25.1	3
0	35003	25.1	3
0	35004	25.1	3
0	35005	25.1	3
0	35006	25.1	3
0	35052	25.15	3
0	35053	25.15	3
0	35054	25.15	3
0	35055	25.15	3
0	35088	25.2	3
0	35089	25.2	3
0	35090	25.2	3
0	35091	25.2	3
0	35092	25.2	3
0	35093	25.2	3
0	35094	25.2	3
0	35095	25.2	3
0	35136	25.25	3
0	35137	25.25	3
0	35138	25.25	3
0	35139	25.25	3
0	35172	25.3	3
0	35173	25.3	3
0	35174	25.3	3
0	35175	25.3	3
0	35176	25.3	3
0	35177	25.3	3
0	35178	25.3	3
0	35179	25.3	3
0	35426	25.35	3
0	35427	25.35	3
0	35428	25.35	3
0	35429	25.35	3
0	35595	25.4	3
0	35596	25.4	3
0	35597	25.4	3
0	35598	25.4	3
0	35599	25.4	3
0	35600	25.4	3
0	35601	25.4	3
0	35602	25.4	3
0	35643	25.45	3
0	35644	25.45	3
0	35645	25.45	3
0	35646	25.45	3
0	35679	25.5	3
0	35680	25.5	3
0	35681	25.5	3
0	35682	25.5	3
0	35683	25.5	3
0	35684	25.5	3
0	35685	25.5	3
0	35686	25.5	3
0	35727	25.55	3
0	35728	25.55	3
0	35729	25.55	3
0	35730	25.55	3
0	35763	25.6	3
0	35764	25.6	3
0	35765	25.6	3
0	35766	25.6	3
0	35767	25.6	3
0	35768	25.6	3
0	35769	25.6	3
0	35770	25.6	3
0	35811	25.65	3
0	35812	25.65	3
0	35813	25.65	3
0	35814	25.65	3
0	35847	25.7	3
0	35848	25.7	3
0	35849	25.7	3
0	35850	25.7	3
0	35851	25.7	3
0	35852	25.7	3
0	35853	25.7	3
0	35854	25.7	3
0	35895	25.75	3
0	35896	25.75	3
0	35897	25.75	3
0	35898	25.75	3
0	35931	25.8	3
0	35932	25.8	3
0	35933	25.8	3
0	35934	25.8	3
0	35935	25.8	3
0	35936	25.8	3
0	35937	25.8	3
0	35938	25.8	3
0	35979	25.85	3
0	35980	25.85	3
0	35981	25.85	3
0	35982	25.85	3
0	36219	25.9	3
0	36220	25.9	3
0	36221	25.9	3
0	36222	25.9	3
0	36223	25.9	3
0	36224	25.9	3
0	36225	25.9	3
0	36226	25.9	3
0	36339	25.95	3
0	36340	25.95	3
0	36341	25.95	3
0	36342	25.95	3
0	36375	26	3
0	36376	26	3
0	36377	26	3
0	36378	26	3
0	36379	26	3
0	36380	26	3
0	36381	26	3
0	36382	26	3
0	36423	26.05	3
0	36424	26.05	3
0	36425	26.05	3
0	36426	26.05	3
0	36463	26.1	3
0	36464	26.1	3
0	36465	26.1	3
0	36466	26.1	3
0	36467	26.1	3
0	36468	26.1	3
0	36469	26.1	3
0	36470	26.1	3
0	36516	26.15	3
0	36517	26.15	3
0	36518	26.15	3
0	36519	26.15	3
0	36552	26.2	3
0	36553	26.2	3
0	36554	26.2	3
0	36555	26.2	3
0	36556	26.2	3
0	36557	26.2	3
0	36558	26.2	3
0	36559	26.2	3
0	36600	26.25	3
0	36601	26.25	3
0	36602	26.25	3
0	36603	26.25	3
0	36636	26.3	3
0	36637	26.3	3
0	36638	26.3	3
0	36639	26.3	3
0	36640	26.3	3
0	36641	26.3	3
0	36642	26.3	3
0	36643	26.3	3
0	36684	26.35	3
0	36685	26.35	3
0	36686	26.35	3
0	36687	26.35	3
0	36720	26.4	3
0	36721	26.4	3
0	36722	26.4	3
0	36723	26.4	3
0	36724	26.4	3
0	36725	26.4	3
0	36726	26.4	3
0	36727	26.4	3
0	36974	26.45	3
0	36975	26.45	3
0	36976	26.45	3
0	36977	26.45	3
0	37146	26.5	3
0	37147	26.5	3
0	37148	26.5	3
0	37149	26.5	3
0	37150	26.5	3
0	37151	26.5	3
0	37152	26.5	3
0	37153	26.5	3
0	37194	26.55	3
0	37195	26.55	3
0	37196	26.55	3
0	37197	26.55	3
0	37230	26.6	3
0	37231	26.6	3
0	37232	26.6	3
0	37233	26.6	3
0	37234	26.6	3
0	37235	26.6	3
0	37236	26.6	3
0	37237	26.6	3
0	37278	26.65	3
0	37279	26.65	3
0	37280	26.65	3
0	37281	26.65	3
0	37314	26.7	3
0	37315	26.7	3
0	37316	26.7	3
0	37317	26.7	3
0	37318	26.7	3
0	37319	26.7	3
0	37320	26.7	3
0	37321	26.7	3
0	37362	26.75	3
0	37363	26.75	3
0	37364	26.75	3
0	37365	26.75	3
0	37398	26.8	3
0	37399	26.8	3
0	37400	26.8	3
0	37401	26.8	3
0	37402	26.8	3
0	37403	26.8	3
0	37404	26.8	3
0	37405	26.8	3
0	37446	26.85	3
0	37447	26.85	3
0	37448	26.85	3
0	37449	26.85	3
0	37482	26.9	3
0	37483	26.9	3
0	37484	26.9	3
0	37485	26.9	3
0	37486	26.9	3
0	37487	26.9	3
0	37488	26.9	3
0	37489	26.9	3
0	37530	26.95	3
0	37531	26.95	3
0	37532	26.95	3
0	37533	26.95	3
0	37771	27	3
0	37772	27	3
0	37773	27	3
0	37774	27	3
0	37775	27	3
0	37776	27	3
0	37777	27	3
0	37778	27	3
0	37891	27.05	3
0	37892	27.05	3
0	37893	27.05	3
0	37894	27.05	3
0	37931	27.1	3
0	37932	27.1	3
0	37933	27.1	3
0	37934	27.1	3
0	37935	27.1	3
0	37936	27.1	3
0	37937	27.1	3
0	37938	27.1	3
0	37984	27.15	3
0	37985	27.15	3
0	37986	27.15	3
0	37987	27.15	3
0	38020	27.2	3
0	38021	27.2	3
0	38022	27.2	3
0	38023	27.2	3
0	38024	27.2	3
0	38025	27.2	3
0	38026	27.2	3
0	38027	27.2	3
0	38068	27.25	3
0	38069	27.25	3
0	38070	27.25	3
0	38071	27.25	3
0	38104	27.3	3
0	38105	27.3	3
0	38106	27.3	3
0	38107	27.3	3
0	38108	27.3	3
0	38109	27.3	3
0	38110	27.3	3
0	38111	27.3	3
0	38152	27.35	3
0	38153	27.35	3
0	38154	27.35	3
0	38155	27.35	3
0	38188	27.4	3
0	38189	27.4	3
0	38190	27.4	3
0	38191	27.4	3
0	38192	27.4	3
0	38193	27.4	3
0	38194	27.4	3
0	38195	27.4	3
0	38236	27.45	3
0	38237	27.45	3
0	38238	27.45	3
0	38239	27.45	3
0	38272	27.5	3
0	38273	27.5	3
0	38274	27.5	3
0	38275	27.5	3
0	38276	27.5	3
0	38277	27.5	3
0	38278	27.5	3
0	38279	27.5	3
0	38526	27.55	3
0	38527	27.55	3
0	38528	27.55	3
0	38529	27.55	3
0	38695	27.6	3
0	38696	27.6	3
0	38697	27.6	3
0	38698	27.6	3
0	38699	27.6	3
0	38700	27.6	3
0	38701	27.6	3
0	38702	27.6	3
0	38743	27.65	3
0	38744	27.65	3
0	38745	27.65	3
0	38746	27.65	3
0	38779	27.7	3
0	38780	27.7	3
0	38781	27.7	3
0	38782	27.7	3
0	38783	27.7	3
0	38784	27.7	3
0	38785	27.7	3
0	38786	27.7	3
0	38827	27.75	3
0	38828	27.75	3
0	38829	27.75	3
0	38830	27.75	3
0	38863	27.8	3
0	38864	27.8	3
0	38865	27.8	3
0	38866	27.8	3
0	38867	27.8	3
0	38868	27.8	3
0	38869	27.8	3
0	38870	27.8	3
0	38911	27.85	3
0	38912	27.85	3
0	38913	27.85	3
0	38914	27.85	3
0	38947	27.9	3
0	38948	27.9	3
0	38949	27.9	3
0	38950	27.9	3
0	38951	27.9	3
0	38952	27.9	3
0	38953	27.9	3
0	38954	27.9	3
0	38995	27.95	3
0	38996	27.95	3
0	38997	27.95	3
0	38998	27.95	3
0	39031	28	3
0	39032	28	3
0	39033	28	3
0	39034	28	3
0	39035	28	3
0	39036	28	3
0	39037	28	3
0	39038	28	3
0	39079	28.05	3
0	39080	28.05	3
0	39081	28.05	3
0	39082	28.05	3
0	39323	28.1	3
0	39324	28.1	3
0	39325	28.1	3
0	39326	28.1	3
0	39327	28.1	3
0	39328	28.1	3
0	39329	28.1	3
0	39330	28.1	3
0	39490	28.15	3
0	39491	28.15	3
0	39492	28.15	3
0	39493	28.15	3
0	39526	28.2	3
0	39527	28.2	3
0	39528	28.2	3
0	39529	28.2	3
0	39530	28.2	3
0	39531	28.2	3
0	39532	28.2	3
0	39533	28.2	3
0	39574	28.25	3
0	39575	28.25	3
0	39576	28.25	3
0	39577	28.25	3
0	39610	28.3	3
0	39611	28.3	3
0	39612	28.3	3
0	39613	28.3	3
0	39614	28.3	3
0	39615	28.3	3
0	39616	28.3	3
0	39617	28.3	3
0	39658	28.35	3
0	39659	28.35	3
0	39660	28.35	3
0	39661	28.35	3
0	39694	28.4	3
0	39695	28.4	3
0	39696	28.4	3
0	39697	28.4	3
0	39698	28.4	3
0	39699	28.4	3
0	39700	28.4	3
0	39701	28.4	3
0	39742	28.45	3
0	39743	28.45	3
0	39744	28.45	3
0	39745	28.45	3
0	39778	28.5	3
0	39779	28.5	3
0	39780	28.5	3
0	39781	28.5	3
0	39782	28.5	3
0	39783	28.5	3
0	39784	28.5	3
0	39785	28.5	3
0	39826	28.55	3
0	39827	28.55	3
0	39828	28.55	3
0	39829	28.55	3
0	39862	28.6	3
0	39863	28.6	3
0	39864	28.6	3
0	39865	28.6	3
0	39866	28.6	3
0	39867	28.6	3
0	39868	28.6	3
0	39869	28.6	3
0	40116	28.65	3
0	40117	28.65	3
0	40118	28.65	3
0	40119	28.65	3
0	40243	28.7	3
0	40244	28.7	3
0	40245	28.7	3
0	40246	28.7	3
0	40247	28.7	3
0	40248	28.7	3
0	40249	28.7	3
0	40250	28.7	3
0	40291	28.75	3
0	40292	28.75	3
0	40293	28.75	3
0	40294	28.75	3
0	40327	28.8	3
0	40328	28.8	3
0	40329	28.8	3
0	40330	28.8	3
0	40331	28.8	3
0	40332	28.8	3
0	40333	28.8	3
0	40334	28.8	3
0	40375	28.85	3
0	40376	28.85	3
0	40377	28.85	3
0	40378	28.85	3
0	40411	28.9	3
0	40412	28.9	3
0	40413	28.9	3
0	40414	28.9	3
0	40415	28.9	3
0	40416	28.9	3
0	40417	28.9	3
0	40418	28.9	3
0	40459	28.95	3
0	40460	28.95	3
0	40461	28.95	3
0	40462	28.95	3
0	40495	29	3
0	40496	29	3
0	40497	29	3
0	40498	29	3
0	40499	29	3
0	40500	29	3
0	40501	29	3
0	40502	29	3
0	40543	29.05	3
0	40544	29.05	3
0	40545	29.05	3
0	40546	29.05	3
0	40583	29.1	3
0	40584	29.1	3
0	40585	29.1	3
0	40586	29.1	3
0	40587	29.1	3
0	40588	29.1	3
0	40589	29.1	3
0	40590	29.1	3
0	40636	29.15	3
0	40637	29.15	3
0	40638	29.15	3
0	40639	29.15	3
0	40878	29.2	3
0	40879	29.2	3
0	40880	29.2	3
0	40881	29.2	3
0	40882	29.2	3
0	40883	29.2	3
0	40884	29.2	3
0	40885	29.2	3
0	41059	29.25	3
0	41060	29.25	3
0	41061	29.25	3
0	41062	29.25	3
0	41095	29.3	3
0	41096	29.3	3
0	41097	29.3	3
0	41098	29.3	3
0	41099	29.3	3
0	41100	29.3	3
0	41101	29.3	3
0	41102	29.3	3
0	41143	29.35	3
0	41144	29.35	3
0	41145	29.35	3
0	41146	29.35	3
0	41179	29.4	3
0	41180	29.4	3
0	41181	29.4	3
0	41182	29.4	3
0	41183	29.4	3
0	41184	29.4	3
0	41185	29.4	3
0	41186	29.4	3
0	41227	29.45	3
0	41228	29.45	3
0	41229	29.45	3
0	41230	29.45	3
0	41263	29.5	3
0	41264	29.5	3
0	41265	29.5	3
0	41266	29.5	3
0	41267	29.5	3
0	41268	29.5	3
0	41269	29.5	3
0	41270	29.5	3
0	41311	29.55	3
0	41312	29.55	3
0	41313	29.55	3
0	41314	29.55	3
0	41347	29.6	3
0	41348	29.6	3
0	41349	29.6	3
0	41350	29.6	3
0	41351	29.6	3
0	41352	29.6	3
0	41353	29.6	3
0	41354	29.6	3
0	41395	29.65	3
0	41396	29.65	3
0	41397	29.65	3
0	41398	29.65	3
0	41431	29.7	3
0	41432	29.7	3
0	41433	29.7	3
0	41434	29.7	3
0	41435	29.7	3
0	41436	29.7	3
0	41437	29.7	3
0	41438	29.7	3
0	41683	29.75	3
0	41684	29.75	3
0	41685	29.75	3
0	41686	29.75	3
0	41791	29.8	3
0	41792	29.8	3
0	41793	29.8	3
0	41794	29.8	3
0	41795	29.8	3
0	41796	29.8	3
0	41797	29.8	3
0	41798	29.8	3
0	41839	29.85	3
0	41840	29.85	3
0	41841	29.85	3
0	41842	29.85	3
0	41875	29.9	3
0	41876	29.9	3
0	41877	29.9	3
0	41878	29.9	3
0	41879	29.9	3
0	41880	29.9	3
0	41881	29.9	3
0	41882	29.9	3
0	41923	29.95	3
0	41924	29.95	3
0	41925	29.95	3
0	41926	29.95	3
0	41959	30	3
0	41960	30	3
0	41961	30	3
0	41962	30	3
0	41963	30	3
0	41964	30	3
0	41965	30	3
0	41966	30	3
0	42007	30.05	3
0	42008	30.05	3
0	42009	30.05	3
0	42010	30.05	3
0	42047	30.1	3
0	42048	30.1	3
0	42049	30.1	3
0	42050	30.1	3
0	42051	30.1	3
0	42052	30.1	3
0	42053	30.1	3
0	42054	30.1	3
0	42100	30.15	3
0	42101	30.15	3
0	42102	30.15	3
0	42103	30.15	3
0	42136	30.2	3
0	42137	30.2	3
0	42138	30.2	3
0	42139	30.2	3
0	42140	30.2	3
0	42141	30.2	3
0	42142	30.2	3
0	42143	30.2	3
0	42184	30.25	3
0	42185	30.25	3
0	42186	30.25	3
0	42187	30.25	3
0	42426	30.3	3
0	42427	30.3	3
0	42428	30.3	3
0	42429	30.3	3
0	42430	30.3	3
0	42431	30.3	3
0	42432	30.3	3
0	42433	30.3	3
0	42607	30.35	3
0	42608	30.35	3
0	42609	30.35	3
0	42610	30.35	3
0	42643	30.4	3
0	42644	30.4	3
0	42645	30.4	3
0	42646	30.4	3
0	42647	30.4	3
0	42648	30.4	3
0	42649	30.4	3
0	42650	30.4	3
0	42691	30.45	3
0	42692	30.45	3
0	42693	30.45	3
0	42694	30.45	3
0	42727	30.5	3
0	42728	30.5	3
0	42729	30.5	3
0	42730	30.5	3
0	42731	30.5	3
0	42732	30.5	3
0	42733	30.5	3
0	42734	30.5	3
0	42775	30.55	3
0	42776	30.55	3
0	42777	30.55	3
0	42778	30.55	3
0	42811	30.6	3
0	42812	30.6	3
0	42813	30.6	3
0	42814	30.6	3
0	42815	30.6	3
0	42816	30.6	3
0	42817	30.6	3
0	42818	30.6	3
0	42859	30.65	3
0	42860	30.65	3
0	42861	30.65	3
0	42862	30.65	3
0	42895	30.7	3
0	42896	30.7	3
0	42897	30.7	3
0	42898	30.7	3
0	42899	30.7	3
0	42900	30.7	3
0	42901	30.7	3
0	42902	30.7	3
0	42943	30.75	3
0	42944	30.75	3
0	42945	30.75	3
0	42946	30.75	3
0	42979	30.8	3
0	42980	30.8	3
0	42981	30.8	3
0	42982	30.8	3
0	42983	30.8	3
0	42984	30.8	3
0	42985	30.8	3
0	42986	30.8	3
0	43231	30.85	3
0	43232	30.85	3
0	43233	30.85	3
0	43234	30.85	3
0	43339	30.9	3
0	43340	30.9	3
0	43341	30.9	3
0	43342	30.9	3
0	43343	30.9	3
0	43344	30.9	3
0	43345	30.9	3
0	43346	30.9	3
0	43387	30.95	3
0	43388	30.95	3
0	43389	30.95	3
0	43390	30.95	3
0	43423	31	3
0	43424	31	3
0	43425	31	3
0	43426	31	3
0	43427	31	3
0	43428	31	3
0	43429	31	3
0	43430	31	3
0	43471	31.05	3
0	43472	31.05	3
0	43473	31.05	3
0	43474	31.05	3
0	43511	31.1	3
0	43512	31.1	3
0	43513	31.1	3
0	43514	31.1	3
0	43515	31.1	3
0	43516	31.1	3
0	43517	31.1	3
0	43518	31.1	3
0	43564	31.15	3
0	43565	31.15	3
0	43566	31.15	3
0	43567	31.15	3
0	43600	31.2	3
0	43601	31.2	3
0	43602	31.2	3
0	43603	31.2	3
0	43604	31.2	3
0	43605	31.2	3
0	43606	31.2	3
0	43607	31.2	3
0	43648	31.25	3
0	43649	31.25	3
0	43650	31.25	3
0	43651	31.25	3
0	43684	31.3	3
0	43685	31.3	3
0	43686	31.3	3
0	43687	31.3	3
0	43688	31.3	3
0	43689	31.3	3
0	43690	31.3	3
0	43691	31.3	3
0	43732	31.35	3
0	43733	31.35	3
0	43734	31.35	3
0	43735	31.35	3
0	43974	31.4	3
0	43975	31.4	3
0	43976	31.4	3
0	43977	31.4	3
0	43978	31.4	3
0	43979	31.4	3
0	43980	31.4	3
0	43981	31.4	3
0	44155	31.45	3
0	44156	31.45	3
0	44157	31.45	3
0	44158	31.45	3
0	44194	31.5	3
0	44195	31.5	3
0	44196	31.5	3
0	44197	31.5	3
0	44198	31.5	3
0	44199	31.5	3
0	44200	31.5	3
0	44201	31.5	3
0	44242	31.55	3
0	44243	31.55	3
0	44244	31.55	3
0	44245	31.55	3
0	44278	31.6	3
0	44279	31.6	3
0	44280	31.6	3
0	44281	31.6	3
0	44282	31.6	3
0	44283	31.6	3
0	44284	31.6	3
0	44285	31.6	3
0	44326	31.65	3
0	44327	31.65	3
0	44328	31.65	3
0	44329	31.65	3
0	44362	31.7	3
0	44363	31.7	3
0	44364	31.7	3
0	44365	31.7	3
0	44366	31.7	3
0	44367	31.7	3
0	44368	31.7	3
0	44369	31.7	3
0	44410	31.75	3
0	44411	31.75	3
0	44412	31.75	3
0	44413	31.75	3
0	44446	31.8	3
0	44447	31.8	3
0	44448	31.8	3
0	44449	31.8	3
0	44450	31.8	3
0	44451	31.8	3
0	44452	31.8	3
0	44453	31.8	3
0	44494	31.85	3
0	44495	31.85	3
0	44496	31.85	3
0	44497	31.85	3
0	44530	31.9	3
0	44531	31.9	3
0	44532	31.9	3
0	44533	31.9	3
0	44534	31.9	3
0	44535	31.9	3
0	44536	31.9	3
0	44537	31.9	3
0	44782	31.95	3
0	44783	31.95	3
0	44784	31.95	3
0	44785	31.95	3
0	44891	32	3
0	44892	32	3
0	44893	32	3
0	44894	32	3
0	44895	32	3
0	44896	32	3
0	44897	32	3
0	44898	32	3
0	44939	32.05	3
0	44940	32.05	3
0	44941	32.05	3
0	44942	32.05	3
0	44979	32.1	3
0	44980	32.1	3
0	44981	32.1	3
0	44982	32.1	3
0	44983	32.1	3
0	44984	32.1	3
0	44985	32.1	3
0	44986	32.1	3
0	45032	32.15	3
0	45033	32.15	3
0	45034	32.15	3
0	45035	32.15	3
0	45068	32.2	3
0	45069	32.2	3
0	45070	32.2	3
0	45071	32.2	3
0	45072	32.2	3
0	45073	32.2	3
0	45074	32.2	3
0	45075	32.2	3
0	45116	32.25	3
0	45117	32.25	3
0	45118	32.25	3
0	45119	32.25	3
0	45152	32.3	3
0	45153	32.3	3
0	45154	32.3	3
0	45155	32.3	3
0	45156	32.3	3
0	45157	32.3	3
0	45158	32.3	3
0	45159	32.3	3
0	45200	32.35	3
0	45201	32.35	3
0	45202	32.35	3
0	45203	32.35	3
0	45236	32.4	3
0	45237	32.4	3
0	45238	32.4	3
0	45239	32.4	3
0	45240	32.4	3
0	45241	32.4	3
0	45242	32.4	3
0	45243	32.4	3
0	45284	32.45	3
0	45285	32.45	3
0	45286	32.45	3
0	45287	32.45	3
0	45526	32.5	3
0	45527	32.5	3
0	45528	32.5	3
0	45529	32.5	3
0	45530	32.5	3
0	45531	32.5	3
0	45532	32.5	3
0	45533	32.5	3
0	45707	32.55	3
0	45708	32.55	3
0	45709	32.55	3
0	45710	32.55	3
0	45743	32.6	3
0	45744	32.6	3
0	45745	32.6	3
0	45746	32.6	3
0	45747	32.6	3
0	45748	32.6	3
0	45749	32.6	3
0	45750	32.6	3
0	45791	32.65	3
0	45792	32.65	3
0	45793	32.65	3
0	45794	32.65	3
0	45827	32.7	3
0	45828	32.7	3
0	45829	32.7	3
0	45830	32.7	3
0	45831	32.7	3
0	45832	32.7	3
0	45833	32.7	3
0	45834	32.7	3
0	45875	32.75	3
0	45876	32.75	3
0	45877	32.75	3
0	45878	32.75	3
0	45911	32.8	3
0	45912	32.8	3
0	45913	32.8	3
0	45914	32.8	3
0	45915	32.8	3
0	45916	32.8	3
0	45917	32.8	3
0	45918	32.8	3
0	45959	32.85	3
0	45960	32.85	3
0	45961	32.85	3
0	45962	32.85	3
0	45995	32.9	3
0	45996	32.9	3
0	45997	32.9	3
0	45998	32.9	3
0	45999	32.9	3
0	46000	32.9	3
0	46001	32.9	3
0	46002	32.9	3
0	46043	32.95	3
0	46044	32.95	3
0	46045	32.95	3
0	46046	32.95	3
0	46079	33	3
0	46080	33	3
0	46081	33	3
0	46082	33	3
0	46083	33	3
0	46084	33	3
0	46085	33	3
0	46086	33	3
0	46331	33.05	3
0	46332	33.05	3
0	46333	33.05	3
0	46334	33.05	3
0	46443	33.1	3
0	46444	33.1	3
0	46445	33.1	3
0	46446	33.1	3
0	46447	33.1	3
0	46448	33.1	3
0	46449	33.1	3
0	46450	33.1	3
0	46496	33.15	3
0	46497	33.15	3
0	46498	33.15	3
0	46499	33.15	3
0	46532	33.2	3
0	46533	33.2	3
0	46534	33.2	3
0	46535	33.2	3
0	46536	33.2	3
0	46537	33.2	3
0	46538	33.2	3
0	46539	33.2	3
0	46580	33.25	3
0	46581	33.25	3
0	46582	33.25	3
0	46583	33.25	3
0	46616	33.3	3
0	46617	33.3	3
0	46618	33.3	3
0	46619	33.3	3
0	46620	33.3	3
0	46621	33.3	3
0	46622	33.3	3
0	46623	33.3	3
0	46664	33.35	3
0	46665	33.35	3
0	46666	33.35	3
0	46667	33.35	3
0	46700	33.4	3
0	46701	33.4	3
0	46702	33.4	3
0	46703	33.4	3
0	46704	33.4	3
0	46705	33.4	3
0	46706	33.4	3
0	46707	33.4	3
0	46748	33.45	3
0	46749	33.45	3
0	46750	33.45	3
0	46751	33.45	3
0	46784	33.5	3
0	46785	33.5	3
0	46786	33.5	3
0	46787	33.5	3
0	46788	33.5	3
0	46789	33.5	3
0	46790	33.5	3
0	46791	33.5	3
0	46832	33.55	3
0	46833	33.55	3
0	46834	33.55	3
0	46835	33.55	3
0	47074	33.6	3
0	47075	33.6	3
0	47076	33.6	3
0	47077	33.6	3
0	47078	33.6	3
0	47079	33.6	3
0	47080	33.6	3
0	47081	33.6	3
0	47255	33.65	3
0	47256	33.65	3
0	47257	33.65	3
0	47258	33.65	3
0	47291	33.7	3
0	47292	33.7	3
0	47293	33.7	3
0	47294	33.7	3
0	47295	33.7	3
0	47296	33.7	3
0	47297	33.7	3
0	47298	33.7	3
0	47339	33.75	3
0	47340	33.75	3
0	47341	33.75	3
0	47342	33.75	3
0	47375	33.8	3
0	47376	33.8	3
0	47377	33.8	3
0	47378	33.8	3
0	47379	33.8	3
0	47380	33.8	3
0	47381	33.8	3
0	47382	33.8	3
0	47423	33.85	3
0	47424	33.85	3
0	47425	33.85	3
0	47426	33.85	3
0	47459	33.9	3
0	47460	33.9	3
0	47461	33.9	3
0	47462	33.9	3
0	47463	33.9	3
0	47464	33.9	3
0	47465	33.9	3
0	47466	33.9	3
0	47507	33.95	3
0	47508	33.95	3
0	47509	33.95	3
0	47510	33.95	3
0	47543	34	3
0	47544	34	3
0	47545	34	3
0	47546	34	3
0	47547	34	3
0	47548	34	3
0	47549	34	3
0	47550	34	3
0	47591	34.05	3
0	47592	34.05	3
0	47593	34.05	3
0	47594	34.05	3
0	47631	34.1	3
0	47632	34.1	3
0	47633	34.1	3
0	47634	34.1	3
0	47635	34.1	3
0	47636	34.1	3
0	47637	34.1	3
0	47638	34.1	3
0	47890	34.15	3
0	47891	34.15	3
0	47892	34.15	3
0	47893	34.15	3
0	48059	34.2	3
0	48060	34.2	3
0	48061	34.2	3
0	48062	34.2	3
0	48063	34.2	3
0	48064	34.2	3
0	48065	34.2	3
0	48066	34.2	3
0	48107	34.25	3
0	48108	34.25	3
0	48109	34.25	3
0	48110	34.25	3
0	48143	34.3	3
0	48144	34.3	3
0	48145	34.3	3
0	48146	34.3	3
0	48147	34.3	3
0	48148	34.3	3
0	48149	34.3	3
0	48150	34.3	3
0	48191	34.35	3
0	48192	34.35	3
0	48193	34.35	3
0	48194	34.35	3
0	48227	34.4	3
0	48228	34.4	3
0	48229	34.4	3
0	48230	34.4	3
0	48231	34.4	3
0	48232	34.4	3
0	48233	34.4	3
0	48234	34.4	3
0	48275	34.45	3
0	48276	34.45	3
0	48277	34.45	3
0	48278	34.45	3
0	48311	34.5	3
0	48312	34.5	3
0	48313	34.5	3
0	48314	34.5	3
0	48315	34.5	3
0	48316	34.5	3
0	48317	34.5	3
0	48318	34.5	3
0	48359	34.55	3
0	48360	34.55	3
0	48361	34.55	3
0	48362	34.55	3
0	48395	34.6	3
0	48396	34.6	3
0	48397	34.6	3
0	48398	34.6	3
0	48399	34.6	3
0	48400	34.6	3
0	48401	34.6	3
0	48402	34.6	3
0	48443	34.65	3
0	48444	34.65	3
0	48445	34.65	3
0	48446	34.65	3
0	48683	34.7	3
0	48684	34.7	3
0	48685	34.7	3
0	48686	34.7	3
0	48687	34.7	3
0	48688	34.7	3
0	48689	34.7	3
0	48690	34.7	3
0	48803	34.75	3
0	48804	34.75	3
0	48805	34.75	3
0	48806	34.75	3
0	48839	34.8	3
0	48840	34.8	3
0	48841	34.8	3
0	48842	34.8	3
0	48843	34.8	3
0	48844	34.8	3
0	48845	34.8	3
0	48846	34.8	3
0	48887	34.85	3
0	48888	34.85	3
0	48889	34.85	3
0	48890	34.85	3
0	48923	34.9	3
0	48924	34.9	3
0	48925	34.9	3
0	48926	34.9	3
0	48927	34.9	3
0	48928	34.9	3
0	48929	34.9	3
0	48930	34.9	3
0	48971	34.95	3
0	48972	34.95	3
0	48973	34.95	3
0	48974	34.95	3
0	49007	35	3
0	49008	35	3
0	49009	35	3
0	49010	35	3
0	49011	35	3
0	49012	35	3
0	49013	35	3
0	49014	35	3
0	49055	35.05	3
0	49056	35.05	3
0	49057	35.05	3
0	49058	35.05	3
0	49095	35.1	3
0	49096	35.1	3
0	49097	35.1	3
0	49098	35.1	3
0	49099	35.1	3
0	49100	35.1	3
0	49101	35.1	3
0	49102	35.1	3
0	49148	35.15	3
0	49149	35.15	3
0	49150	35.15	3
0	49151	35.15	3
0	49184	35.2	3
0	49185	35.2	3
0	49186	35.2	3
0	49187	35.2	3
0	49188	35.2	3
0	49189	35.2	3
0	49190	35.2	3
0	49191	35.2	3
0	49438	35.25	3
0	49439	35.25	3
0	49440	35.25	3
0	49441	35.25	3
0	49607	35.3	3
0	49608	35.3	3
0	49609	35.3	3
0	49610	35.3	3
0	49611	35.3	3
0	49612	35.3	3
0	49613	35.3	3
0	49614	35.3	3
0	49655	35.35	3
0	49656	35.35	3
0	49657	35.35	3
0	49658	35.35	3
0	49691	35.4	3
0	49692	35.4	3
0	49693	35.4	3
0	49694	35.4	3
0	49695	35.4	3
0	49696	35.4	3
0	49697	35.4	3
0	49698	35.4	3
0	49739	35.45	3
0	49740	35.45	3
0	49741	35.45	3
0	49742	35.45	3
0	49775	35.5	3
0	49776	35.5	3
0	49777	35.5	3
0	49778	35.5	3
0	49779	35.5	3
0	49780	35.5	3
0	49781	35.5	3
0	49782	35.5	3
0	49823	35.55	3
0	49824	35.55	3
0	49825	35.55	3
0	49826	35.55	3
0	49859	35.6	3
0	49860	35.6	3
0	49861	35.6	3
0	49862	35.6	3
0	49863	35.6	3
0	49864	35.6	3
0	49865	35.6	3
0	49866	35.6	3
0	49907	35.65	3
0	49908	35.65	3
0	49909	35.65	3
0	49910	35.65	3
0	49943	35.7	3
0	49944	35.7	3
0	49945	35.7	3
0	49946	35.7	3
0	49947	35.7	3
0	49948	35.7	3
0	49949	35.7	3
0	49950	35.7	3
0	49991	35.75	3
0	49992	35.75	3
0	49993	35.75	3
0	49994	35.75	3
0	50231	35.8	3
0	50232	35.8	3
0	50233	35.8	3
0	50234	35.8	3
0	50235	35.8	3
0	50236	35.8	3
0	50237	35.8	3
0	50238	35.8	3
0	50351	35.85	3
0	50352	35.85	3
0	50353	35.85	3
0	50354	35.85	3
0	50387	35.9	3
0	50388	35.9	3
0	50389	35.9	3
0	50390	35.9	3
0	50391	35.9	3
0	50392	35.9	3
0	50393	35.9	3
0	50394	35.9	3
0	50435	35.95	3
0	50436	35.95	3
0	50437	35.95	3
0	50438	35.95	3
0	50471	36	3
0	50472	36	3
0	50473	36	3
0	50474	36	3
0	50475	36	3
0	50476	36	3
0	50477	36	3
0	50478	36	3
0	50519	36.05	3
0	50520	36.05	3
0	50521	36.05	3
0	50522	36.05	3
0	50559	36.1	3
0	50560	36.1	3
0	50561	36.1	3
0	50562	36.1	3
0	50563	36.1	3
0	50564	36.1	3
0	50565	36.1	3
0	50566	36.1	3
0	50612	36.15	3
0	50613	36.15	3
0	50614	36.15	3
0	50615	36.15	3
0	50648	36.2	3
0	50649	36.2	3
0	50650	36.2	3
0	50651	36.2	3
0	50652	36.2	3
0	50653	36.2	3
0	50654	36.2	3
0	50655	36.2	3
0	50696	36.25	3
0	50697	36.25	3
0	50698	36.25	3
0	50699	36.25	3
0	50732	36.3	3
0	50733	36.3	3
0	50734	36.3	3
0	50735	36.3	3
0	50736	36.3	3
0	50737	36.3	3
0	50738	36.3	3
0	50739	36.3	3
0	50986	36.35	3
0	50987	36.35	3
0	50988	36.35	3
0	50989	36.35	3
0	51155	36.4	3
0	51156	36.4	3
0	51157	36.4	3
0	51158	36.4	3
0	51159	36.4	3
0	51160	36.4	3
0	51161	36.4	3
0	51162	36.4	3
0	51203	36.45	3
0	51204	36.45	3
0	51205	36.45	3
0	51206	36.45	3
0	51242	36.5	3
0	51243	36.5	3
0	51244	36.5	3
0	51245	36.5	3
0	51246	36.5	3
0	51247	36.5	3
0	51248	36.5	3
0	51249	36.5	3
0	51290	36.55	3
0	51291	36.55	3
0	51292	36.55	3
0	51293	36.55	3
0	51326	36.6	3
0	51327	36.6	3
0	51328	36.6	3
0	51329	36.6	3
0	51330	36.6	3
0	51331	36.6	3
0	51332	36.6	3
0	51333	36.6	3
0	51374	36.65	3
0	51375	36.65	3
0	51376	36.65	3
0	51377	36.65	3
0	51410	36.7	3
0	51411	36.7	3
0	51412	36.7	3
0	51413	36.7	3
0	51414	36.7	3
0	51415	36.7	3
0	51416	36.7	3
0	51417	36.7	3
0	51458	36.75	3
0	51459	36.75	3
0	51460	36.75	3
0	51461	36.75	3
0	51494	36.8	3
0	51495	36.8	3
0	51496	36.8	3
0	51497	36.8	3
0	51498	36.8	3
0	51499	36.8	3
0	51500	36.8	3
0	51501	36.8	3
0	51542	36.85	3
0	51543	36.85	3
0	51544	36.85	3
0	51545	36.85	3
0	51782	36.9	3
0	51783	36.9	3
0	51784	36.9	3
0	51785	36.9	3
0	51786	36.9	3
0	51787	36.9	3
0	51788	36.9	3
0	51789	36.9	3
0	51902	36.95	3
0	51903	36.95	3
0	51904	36.95	3
0	51905	36.95	3
0	51939	37	3
0	51940	37	3
0	51941	37	3
0	51942	37	3
0	51943	37	3
0	51944	37	3
0	51945	37	3
0	51946	37	3
0	51987	37.05	3
0	51988	37.05	3
0	51989	37.05	3
0	51990	37.05	3
0	52027	37.1	3
0	52028	37.1	3
0	52029	37.1	3
0	52030	37.1	3
0	52031	37.1	3
0	52032	37.1	3
0	52033	37.1	3
0	52034	37.1	3
0	52080	37.15	3
0	52081	37.15	3
0	52082	37.15	3
0	52083	37.15	3
0	52116	37.2	3
0	52117	37.2	3
0	52118	37.2	3
0	52119	37.2	3
0	52120	37.2	3
0	52121	37.2	3
0	52122	37.2	3
0	52123	37.2	3
0	52164	37.25	3
0	52165	37.25	3
0	52166	37.25	3
0	52167	37.25	3
0	52200	37.3	3
0	52201	37.3	3
0	52202	37.3	3
0	52203	37.3	3
0	52204	37.3	3
0	52205	37.3	3
0	52206	37.3	3
0	52207	37.3	3
0	52248	37.35	3
0	52249	37.35	3
0	52250	37.35	3
0	52251	37.35	3
0	52284	37.4	3
0	52285	37.4	3
0	52286	37.4	3
0	52287	37.4	3
0	52288	37.4	3
0	52289	37.4	3
0	52290	37.4	3
0	52291	37.4	3
0	52538	37.45	3
0	52539	37.45	3
0	52540	37.45	3
0	52541	37.45	3
0	52707	37.5	3
0	52708	37.5	3
0	52709	37.5	3
0	52710	37.5	3
0	52711	37.5	3
0	52712	37.5	3
0	52713	37.5	3
0	52714	37.5	3
0	52755	37.55	3
0	52756	37.55	3
0	52757	37.55	3
0	52758	37.55	3
0	52791	37.6	3
0	52792	37.6	3
0	52793	37.6	3
0	52794	37.6	3
0	52795	37.6	3
0	52796	37.6	3
0	52797	37.6	3
0	52798	37.6	3
0	52839	37.65	3
0	52840	37.65	3
0	52841	37.65	3
0	52842	37.65	3
0	52875	37.7	3
0	52876	37.7	3
0	52877	37.7	3
0	52878	37.7	3
0	52879	37.7	3
0	52880	37.7	3
0	52881	37.7	3
0	52882	37.7	3
0	52923	37.75	3
0	52924	37.75	3
0	52925	37.75	3
0	52926	37.75	3
0	52959	37.8	3
0	52960	37.8	3
0	52961	37.8	3
0	52962	37.8	3
0	52963	37.8	3
0	52964	37.8	3
0	52965	37.8	3
0	52966	37.8	3
0	53007	37.85	3
0	53008	37.85	3
0	53009	37.85	3
0	53010	37.85	3
0	53043	37.9	3
0	53044	37.9	3
0	53045	37.9	3
0	53046	37.9	3
0	53047	37.9	3
0	53048	37.9	3
0	53049	37.9	3
0	53050	37.9	3
0	53091	37.95	3
0	53092	37.95	3
0	53093	37.95	3
0	53094	37.95	3
0	53331	38	3
0	53332	38	3
0	53333	38	3
0	53334	38	3
0	53335	38	3
0	53336	38	3
0	53337	38	3
0	53338	38	3
0	53451	38.05	3
0	53452	38.05	3
0	53453	38.05	3
0	53454	38.05	3
0	53491	38.1	3
0	53492	38.1	3
0	53493	38.1	3
0	53494	38.1	3
0	53495	38.1	3
0	53496	38.1	3
0	53497	38.1	3
0	53498	38.1	3
0	53544	38.15	3
0	53545	38.15	3
0	53546	38.15	3
0	53547	38.15	3
0	53580	38.2	3
0	53581	38.2	3
0	53582	38.2	3
0	53583	38.2	3
0	53584	38.2	3
0	53585	38.2	3
0	53586	38.2	3
0	53587	38.2	3
0	53628	38.25	3
0	53629	38.25	3
0	53630	38.25	3
0	53631	38.25	3
0	53664	38.3	3
0	53665	38.3	3
0	53666	38.3	3
0	53667	38.3	3
0	53668	38.3	3
0	53669	38.3	3
0	53670	38.3	3
0	53671	38.3	3
0	53712	38.35	3
0	53713	38.35	3
0	53714	38.35	3
0	53715	38.35	3
0	53748	38.4	3
0	53749	38.4	3
0	53750	38.4	3
0	53751	38.4	3
0	53752	38.4	3
0	53753	38.4	3
0	53754	38.4	3
0	53755	38.4	3
0	53796	38.45	3
0	53797	38.45	3
0	53798	38.45	3
0	53799	38.45	3
0	53832	38.5	3
0	53833	38.5	3
0	53834	38.5	3
0	53835	38.5	3
0	53836	38.5	3
0	53837	38.5	3
0	53838	38.5	3
0	53839	38.5	3
0	54086	38.55	3
0	54087	38.55	3
0	54088	38.55	3
0	54089	38.55	3
0	54255	38.6	3
0	54256	38.6	3
0	54257	38.6	3
0	54258	38.6	3
0	54259	38.6	3
0	54260	38.6	3
0	54261	38.6	3
0	54262	38.6	3
0	54303	38.65	3
0	54304	38.65	3
0	54305	38.65	3
0	54306	38.65	3
0	54339	38.7	3
0	54340	38.7	3
0	54341	38.7	3
0	54342	38.7	3
0	54343	38.7	3
0	54344	38.7	3
0	54345	38.7	3
0	54346	38.7	3
0	54387	38.75	3
0	54388	38.75	3
0	54389	38.75	3
0	54390	38.75	3
0	54423	38.8	3
0	54424	38.8	3
0	54425	38.8	3
0	54426	38.8	3
0	54427	38.8	3
0	54428	38.8	3
0	54429	38.8	3
0	54430	38.8	3
0	54471	38.85	3
0	54472	38.85	3
0	54473	38.85	3
0	54474	38.85	3
0	54507	38.9	3
0	54508	38.9	3
0	54509	38.9	3
0	54510	38.9	3
0	54511	38.9	3
0	54512	38.9	3
0	54513	38.9	3
0	54514	38.9	3
0	54555	38.95	3
0	54556	38.95	3
0	54557	38.95	3
0	54558	38.95	3
0	54591	39	3
0	54592	39	3
0	54593	39	3
0	54594	39	3
0	54595	39	3
0	54596	39	3
0	54597	39	3
0	54598	39	3
0	54639	39.05	3
0	54640	39.05	3
0	54641	39.05	3
0	54642	39.05	3
0	54883	39.1	3
0	54884	39.1	3
0	54885	39.1	3
0	54886	39.1	3
0	54887	39.1	3
0	54888	39.1	3
0	54889	39.1	3
0	54890	39.1	3
0	55050	39.15	3
0	55051	39.15	3
0	55052	39.15	3
0	55053	39.15	3
0	55086	39.2	3
0	55087	39.2	3
0	55088	39.2	3
0	55089	39.2	3
0	55090	39.2	3
0	55091	39.2	3
0	55092	39.2	3
0	55093	39.2	3
0	55134	39.25	3
0	55135	39.25	3
0	55136	39.25	3
0	55137	39.25	3
0	55170	39.3	3
0	55171	39.3	3
0	55172	39.3	3
0	55173	39.3	3
0	55174	39.3	3
0	55175	39.3	3
0	55176	39.3	3
0	55177	39.3	3
0	55218	39.35	3
0	55219	39.35	3
0	55220	39.35	3
0	55221	39.35	3
0	55254	39.4	3
0	55255	39.4	3
0	55256	39.4	3
0	55257	39.4	3
0	55258	39.4	3
0	55259	39.4	3
0	55260	39.4	3
0	55261	39.4	3
0	55302	39.45	3
0	55303	39.45	3
0	55304	39.45	3
0	55305	39.45	3
0	55338	39.5	3
0	55339	39.5	3
0	55340	39.5	3
0	55341	39.5	3
0	55342	39.5	3
0	55343	39.5	3
0	55344	39.5	3
0	55345	39.5	3
0	55386	39.55	3
0	55387	39.55	3
0	55388	39.55	3
0	55389	39.55	3
0	55422	39.6	3
0	55423	39.6	3
0	55424	39.6	3
0	55425	39.6	3
0	55426	39.6	3
0	55427	39.6	3
0	55428	39.6	3
0	55429	39.6	3
0	55676	39.65	3
0	55677	39.65	3
0	55678	39.65	3
0	55679	39.65	3
0	55803	39.7	3
0	55804	39.7	3
0	55805	39.7	3
0	55806	39.7	3
0	55807	39.7	3
0	55808	39.7	3
0	55809	39.7	3
0	55810	39.7	3
0	55851	39.75	3
0	55852	39.75	3
0	55853	39.75	3
0	55854	39.75	3
0	55887	39.8	3
0	55888	39.8	3
0	55889	39.8	3
0	55890	39.8	3
0	55891	39.8	3
0	55892	39.8	3
0	55893	39.8	3
0	55894	39.8	3
0	55935	39.85	3
0	55936	39.85	3
0	55937	39.85	3
0	55938	39.85	3
0	55971	39.9	3
0	55972	39.9	3
0	55973	39.9	3
0	55974	39.9	3
0	55975	39.9	3
0	55976	39.9	3
0	55977	39.9	3
0	55978	39.9	3
0	56019	39.95	3
0	56020	39.95	3
0	56021	39.95	3
0	56022	39.95	3
0	56055	40	3
0	56056	40	3
0	56057	40	3
0	56058	40	3
0	56059	40	3
0	56060	40	3
0	56061	40	3
0	56062	40	3
0	56103	40.05	3
0	56104	40.05	3
0	56105	40.05	3
0	56106	40.05	3
0	56143	40.1	3
0	56144	40.1	3
0	56145	40.1	3
0	56146	40.1	3
0	56147	40.1	3
0	56148	40.1	3
0	56149	40.1	3
0	56150	40.1	3
0	56196	40.15	3
0	56197	40.15	3
0	56198	40.15	3
0	56199	40.15	3
0	56438	40.2	3
0	56439	40.2	3
0	56440	40.2	3
0	56441	40.2	3
0	56442	40.2	3
0	56443	40.2	3
0	56444	40.2	3
0	56445	40.2	3
0	56619	40.25	3
0	56620	40.25	3
0	56621	40.25	3
0	56622	40.25	3
0	56655	40.3	3
0	56656	40.3	3
0	56657	40.3	3
0	56658	40.3	3
0	56659	40.3	3
0	56660	40.3	3
0	56661	40.3	3
0	56662	40.3	3
0	56703	40.35	3
0	56704	40.35	3
0	56705	40.35	3
0	56706	40.35	3
0	56739	40.4	3
0	56740	40.4	3
0	56741	40.4	3
0	56742	40.4	3
0	56743	40.4	3
0	56744	40.4	3
0	56745	40.4	3
0	56746	40.4	3
0	56787	40.45	3
0	56788	40.45	3
0	56789	40.45	3
0	56790	40.45	3
0	56823	40.5	3
0	56824	40.5	3
0	56825	40.5	3
0	56826	40.5	3
0	56827	40.5	3
0	56828	40.5	3
0	56829	40.5	3
0	56830	40.5	3
0	56871	40.55	3
0	56872	40.55	3
0	56873	40.55	3
0	56874	40.55	3
0	56907	40.6	3
0	56908	40.6	3
0	56909	40.6	3
0	56910	40.6	3
0	56911	40.6	3
0	56912	40.6	3
0	56913	40.6	3
0	56914	40.6	3
0	56955	40.65	3
0	56956	40.65	3
0	56957	40.65	3
0	56958	40.65	3
0	56991	40.7	3
0	56992	40.7	3
0	56993	40.7	3
0	56994	40.7	3
0	56995	40.7	3
0	56996	40.7	3
0	56997	40.7	3
0	56998	40.7	3
0	57243	40.75	3
0	57244	40.75	3
0	57245	40.75	3
0	57246	40.75	3
0	57351	40.8	3
0	57352	40.8	3
0	57353	40.8	3
0	57354	40.8	3
0	57355	40.8	3
0	57356	40.8	3
0	57357	40.8	3
0	57358	40.8	3
0	57399	40.85	3
0	57400	40.85	3
0	57401	40.85	3
0	57402	40.85	3
0	57435	40.9	3
0	57436	40.9	3
0	57437	40.9	3
0	57438	40.9	3
0	57439	40.9	3
0	57440	40.9	3
0	57441	40.9	3
0	57442	40.9	3
0	57483	40.95	3
0	57484	40.95	3
0	57485	40.95	3
0	57486	40.95	3
0	57519	41	3
0	57520	41	3
0	57521	41	3
0	57522	41	3
0	57523	41	3
0	57524	41	3
0	57525	41	3
0	57526	41	3
0	57567	41.05	3
0	57568	41.05	3
0	57569	41.05	3
0	57570	41.05	3
0	57607	41.1	3
0	57608	41.1	3
0	57609	41.1	3
0	57610	41.1	3
0	57611	41.1	3
0	57612	41.1	3
0	57613	41.1	3
0	57614	41.1	3
0	57660	41.15	3
0	57661	41.15	3
0	57662	41.15	3
0	57663	41.15	3
0	57696	41.2	3
0	57697	41.2	3
0	57698	41.2	3
0	57699	41.2	3
0	57700	41.2	3
0	57701	41.2	3
0	57702	41.2	3
0	57703	41.2	3
0	57744	41.25	3
0	57745	41.25	3
0	57746	41.25	3
0	57747	41.25	3
0	57986	41.3	3
0	57987	41.3	3
0	57988	41.3	3
0	57989	41.3	3
0	57990	41.3	3
0	57991	41.3	3
0	57992	41.3	3
0	57993	41.3	3
0	58167	41.35	3
0	58168	41.35	3
0	58169	41.35	3
0	58170	41.35	3
0	58203	41.4	3
0	58204	41.4	3
0	58205	41.4	3
0	58206	41.4	3
0	58207	41.4	3
0	58208	41.4	3
0	58209	41.4	3
0	58210	41.4	3
0	58251	41.45	3
0	58252	41.45	3
0	58253	41.45	3
0	58254	41.45	3
0	58290	41.5	3
0	58291	41.5	3
0	58292	41.5	3
0	58293	41.5	3
0	58294	41.5	3
0	58295	41.5	3
0	58296	41.5	3
0	58297	41.5	3
0	58338	41.55	3
0	58339	41.55	3
0	58340	41.55	3
0	58341	41.55	3
0	58374	41.6	3
0	58375	41.6	3
0	58376	41.6	3
0	58377	41.6	3
0	58378	41.6	3
0	58379	41.6	3
0	58380	41.6	3
0	58381	41.6	3
0	58422	41.65	3
0	58423	41.65	3
0	58424	41.65	3
0	58425	41.65	3
0	58458	41.7	3
0	58459	41.7	3
0	58460	41.7	3
0	58461	41.7	3
0	58462	41.7	3
0	58463	41.7	3
0	58464	41.7	3
0	58465	41.7	3
0	58506	41.75	3
0	58507	41.75	3
0	58508	41.75	3
0	58509	41.75	3
0	58542	41.8	3
0	58543	41.8	3
0	58544	41.8	3
0	58545	41.8	3
0	58546	41.8	3
0	58547	41.8	3
0	58548	41.8	3
0	58549	41.8	3
0	58794	41.85	3
0	58795	41.85	3
0	58796	41.85	3
0	58797	41.85	3
0	58902	41.9	3
0	58903	41.9	3
0	58904	41.9	3
0	58905	41.9	3
0	58906	41.9	3
0	58907	41.9	3
0	58908	41.9	3
0	58909	41.9	3
0	58950	41.95	3
0	58951	41.95	3
0	58952	41.95	3
0	58953	41.95	3
0	58987	42	3
0	58988	42	3
0	58989	42	3
0	58990	42	3
0	58991	42	3
0	58992	42	3
0	58993	42	3
0	58994	42	3
0	59035	42.05	3
0	59036	42.05	3
0	59037	42.05	3
0	59038	42.05	3
0	59075	42.1	3
0	59076	42.1	3
0	59077	42.1	3
0	59078	42.1	3
0	59079	42.1	3
0	59080	42.1	3
0	59081	42.1	3
0	59082	42.1	3
0	59128	42.15	3
0	59129	42.15	3
0	59130	42.15	3
0	59131	42.15	3
0	59164	42.2	3
0	59165	42.2	3
0	59166	42.2	3
0	59167	42.2	3
0	59168	42.2	3
0	59169	42.2	3
0	59170	42.2	3
0	59171	42.2	3
0	59212	42.25	3
0	59213	42.25	3
0	59214	42.25	3
0	59215	42.25	3
0	59248	42.3	3
0	59249	42.3	3
0	59250	42.3	3
0	59251	42.3	3
0	59252	42.3	3
0	59253	42.3	3
0	59254	42.3	3
0	59255	42.3	3
0	59296	42.35	3
0	59297	42.35	3
0	59298	42.35	3
0	59299	42.35	3
0	59538	42.4	3
0	59539	42.4	3
0	59540	42.4	3
0	59541	42.4	3
0	59542	42.4	3
0	59543	42.4	3
0	59544	42.4	3
0	59545	42.4	3
0	59719	42.45	3
0	59720	42.45	3
0	59721	42.45	3
0	59722	42.45	3
0	59755	42.5	3
0	59756	42.5	3
0	59757	42.5	3
0	59758	42.5	3
0	59759	42.5	3
0	59760	42.5	3
0	59761	42.5	3
0	59762	42.5	3
0	59803	42.55	3
0	59804	42.55	3
0	59805	42.55	3
0	59806	42.55	3
0	59839	42.6	3
0	59840	42.6	3
0	59841	42.6	3
0	59842	42.6	3
0	59843	42.6	3
0	59844	42.6	3
0	59845	42.6	3
0	59846	42.6	3
0	59887	42.65	3
0	59888	42.65	3
0	59889	42.65	3
0	59890	42.65	3
0	59923	42.7	3
0	59924	42.7	3
0	59925	42.7	3
0	59926	42.7	3
0	59927	42.7	3
0	59928	42.7	3
0	59929	42.7	3
0	59930	42.7	3
0	59971	42.75	3
0	59972	42.75	3
0	59973	42.75	3
0	59974	42.75	3
0	60007	42.8	3
0	60008	42.8	3
0	60009	42.8	3
0	60010	42.8	3
0	60011	42.8	3
0	60012	42.8	3
0	60013	42.8	3
0	60014	42.8	3
0	60055	42.85	3
0	60056	42.85	3
0	60057	42.85	3
0	60058	42.85	3
0	60091	42.9	3
0	60092	42.9	3
0	60093	42.9	3
0	60094	42.9	3
0	60095	42.9	3
0	60096	42.9	3
0	60097	42.9	3
0	60098	42.9	3
0	60343	42.95	3
0	60344	42.95	3
0	60345	42.95	3
0	60346	42.95	3
0	60451	43	3
0	60452	43	3
0	60453	43	3
0	60454	43	3
0	60455	43	3
0	60456	43	3
0	60457	43	3
0	60458	43	3
0	60499	43.05	3
0	60500	43.05	3
0	60501	43.05	3
0	60502	43.05	3
0	60539	43.1	3
0	60540	43.1	3
0	60541	43.1	3
0	60542	43.1	3
0	60543	43.1	3
0	60544	43.1	3
0	60545	43.1	3
0	60546	43.1	3
0	60592	43.15	3
0	60593	43.15	3
0	60594	43.15	3
0	60595	43.15	3
0	60628	43.2	3
0	60629	43.2	3
[...]
0	262348	190.35	3
0	262349	190.35	3
0	262350	190.35	3
0	262455	190.4	3
0	262456	190.4	3
0	262457	190.4	3
0	262458	190.4	3
0	262459	190.4	3
0	262460	190.4	3
0	262461	190.4	3
0	262462	190.4	3
0	262503	190.45	3
0	262504	190.45	3
0	262505	190.45	3
0	262506	190.45	3
0	262539	190.5	3
0	262540	190.5	3
0	262541	190.5	3
0	262542	190.5	3
0	262543	190.5	3
0	262544	190.5	3
0	262545	190.5	3
0	262546	190.5	3
0	262587	190.55	3
0	262588	190.55	3
0	262589	190.55	3
0	262590	190.55	3
0	262623	190.6	3
0	262624	190.6	3
0	262625	190.6	3
0	262626	190.6	3
0	262627	190.6	3
0	262628	190.6	3
0	262629	190.6	3
0	262630	190.6	3
0	262671	190.65	3
0	262672	190.65	3
0	262673	190.65	3
0	262674	190.65	3
0	262707	190.7	3
0	262708	190.7	3
0	262709	190.7	3
0	262710	190.7	3
0	262711	190.7	3
0	262712	190.7	3
0	262713	190.7	3
0	262714	190.7	3
0	262755	190.75	3
0	262756	190.75	3
0	262757	190.75	3
0	262758	190.75	3
0	262791	190.8	3
0	262792	190.8	3
0	262793	190.8	3
0	262794	190.8	3
0	262795	190.8	3
0	262796	190.8	3
0	262797	190.8	3
0	262798	190.8	3
0	262839	190.85	3
0	262840	190.85	3
0	262841	190.85	3
0	262842	190.85	3
0	263079	190.9	3
0	263080	190.9	3
0	263081	190.9	3
0	263082	190.9	3
0	263083	190.9	3
0	263084	190.9	3
0	263085	190.9	3
0	263086	190.9	3
0	263199	190.95	3
0	263200	190.95	3
0	263201	190.95	3
0	263202	190.95	3
0	263235	191	3
0	263236	191	3
0	263237	191	3
0	263238	191	3
0	263239	191	3
0	263240	191	3
0	263241	191	3
0	263242	191	3
0	263283	191.05	3
0	263284	191.05	3
0	263285	191.05	3
0	263286	191.05	3
0	263319	191.1	3
0	263320	191.1	3
0	263321	191.1	3
0	263322	191.1	3
0	263323	191.1	3
0	263324	191.1	3
0	263325	191.1	3
0	263326	191.1	3
0	263367	191.15	3
0	263368	191.15	3
0	263369	191.15	3
0	263370	191.15	3
0	263403	191.2	3
0	263404	191.2	3
0	263405	191.2	3
0	263406	191.2	3
0	263407	191.2	3
0	263408	191.2	3
0	263409	191.2	3
0	263410	191.2	3
0	263451	191.25	3
0	263452	191.25	3
0	263453	191.25	3
0	263454	191.25	3
0	263487	191.3	3
0	263488	191.3	3
0	263489	191.3	3
0	263490	191.3	3
0	263491	191.3	3
0	263492	191.3	3
0	263493	191.3	3
0	263494	191.3	3
0	263535	191.35	3
0	263536	191.35	3
0	263537	191.35	3
0	263538	191.35	3
0	263571	191.4	3
0	263572	191.4	3
0	263573	191.4	3
0	263574	191.4	3
0	263575	191.4	3
0	263576	191.4	3
0	263577	191.4	3
0	263578	191.4	3
0	263823	191.45	3
0	263824	191.45	3
0	263825	191.45	3
0	263826	191.45	3
0	263934	191.5	3
0	263935	191.5	3
0	263936	191.5	3
0	263937	191.5	3
0	263938	191.5	3
0	263939	191.5	3
0	263940	191.5	3
0	263941	191.5	3
0	263982	191.55	3
0	263983	191.55	3
0	263984	191.55	3
0	263985	191.55	3
0	264018	191.6	3
0	264019	191.6	3
0	264020	191.6	3
0	264021	191.6	3
0	264022	191.6	3
0	264023	191.6	3
0	264024	191.6	3
0	264025	191.6	3
0	264066	191.65	3
0	264067	191.65	3
0	264068	191.65	3
0	264069	191.65	3
0	264102	191.7	3
0	264103	191.7	3
0	264104	191.7	3
0	264105	191.7	3
0	264106	191.7	3
0	264107	191.7	3
0	264108	191.7	3
0	264109	191.7	3
0	264150	191.75	3
0	264151	191.75	3
0	264152	191.75	3
0	264153	191.75	3
0	264186	191.8	3
0	264187	191.8	3
0	264188	191.8	3
0	264189	191.8	3
0	264190	191.8	3
0	264191	191.8	3
0	264192	191.8	3
0	264193	191.8	3
0	264234	191.85	3
0	264235	191.85	3
0	264236	191.85	3
0	264237	191.85	3
0	264270	191.9	3
0	264271	191.9	3
0	264272	191.9	3
0	264273	191.9	3
0	264274	191.9	3
0	264275	191.9	3
0	264276	191.9	3
0	264277	191.9	3
0	264318	191.95	3
0	264319	191.95	3
0	264320	191.95	3
0	264321	191.95	3
0	264559	192	3
0	264560	192	3
0	264561	192	3
0	264562	192	3
0	264563	192	3
0	264564	192	3
0	264565	192	3
0	264566	192	3
0	264679	192.05	3
0	264680	192.05	3
0	264681	192.05	3
0	264682	192.05	3
0	264715	192.1	3
0	264716	192.1	3
0	264717	192.1	3
0	264718	192.1	3
0	264719	192.1	3
0	264720	192.1	3
0	264721	192.1	3
0	264722	192.1	3
0	264763	192.15	3
0	264764	192.15	3
0	264765	192.15	3
0	264766	192.15	3
0	264799	192.2	3
0	264800	192.2	3
0	264801	192.2	3
0	264802	192.2	3
0	264803	192.2	3
0	264804	192.2	3
0	264805	192.2	3
0	264806	192.2	3
0	264847	192.25	3
0	264848	192.25	3
0	264849	192.25	3
0	264850	192.25	3
0	264883	192.3	3
0	264884	192.3	3
0	264885	192.3	3
0	264886	192.3	3
0	264887	192.3	3
0	264888	192.3	3
0	264889	192.3	3
0	264890	192.3	3
0	264931	192.35	3
0	264932	192.35	3
0	264933	192.35	3
0	264934	192.35	3
0	264967	192.4	3
0	264968	192.4	3
0	264969	192.4	3
0	264970	192.4	3
0	264971	192.4	3
0	264972	192.4	3
0	264973	192.4	3
0	264974	192.4	3
0	265015	192.45	3
0	265016	192.45	3
0	265017	192.45	3
0	265018	192.45	3
0	265051	192.5	3
0	265052	192.5	3
0	265053	192.5	3
0	265054	192.5	3
0	265055	192.5	3
0	265056	192.5	3
0	265057	192.5	3
0	265058	192.5	3
0	265303	192.55	3
0	265304	192.55	3
0	265305	192.55	3
0	265306	192.55	3
0	265411	192.6	3
0	265412	192.6	3
0	265413	192.6	3
0	265414	192.6	3
0	265415	192.6	3
0	265416	192.6	3
0	265417	192.6	3
0	265418	192.6	3
0	265459	192.65	3
0	265460	192.65	3
0	265461	192.65	3
0	265462	192.65	3
0	265495	192.7	3
0	265496	192.7	3
0	265497	192.7	3
0	265498	192.7	3
0	265499	192.7	3
0	265500	192.7	3
0	265501	192.7	3
0	265502	192.7	3
0	265543	192.75	3
0	265544	192.75	3
0	265545	192.75	3
0	265546	192.75	3
0	265579	192.8	3
0	265580	192.8	3
0	265581	192.8	3
0	265582	192.8	3
0	265583	192.8	3
0	265584	192.8	3
0	265585	192.8	3
0	265586	192.8	3
0	265627	192.85	3
0	265628	192.85	3
0	265629	192.85	3
0	265630	192.85	3
0	265663	192.9	3
0	265664	192.9	3
0	265665	192.9	3
0	265666	192.9	3
0	265667	192.9	3
0	265668	192.9	3
0	265669	192.9	3
0	265670	192.9	3
0	265711	192.95	3
0	265712	192.95	3
0	265713	192.95	3
0	265714	192.95	3
0	265747	193	3
0	265748	193	3
0	265749	193	3
0	265750	193	3
0	265751	193	3
0	265752	193	3
0	265753	193	3
0	265754	193	3
0	265795	193.05	3
0	265796	193.05	3
0	265797	193.05	3
0	265798	193.05	3
0	266035	193.1	3
0	266036	193.1	3
0	266037	193.1	3
0	266038	193.1	3
0	266039	193.1	3
0	266040	193.1	3
0	266041	193.1	3
0	266042	193.1	3
0	266155	193.15	3
0	266156	193.15	3
0	266157	193.15	3
0	266158	193.15	3
0	266191	193.2	3
0	266192	193.2	3
0	266193	193.2	3
0	266194	193.2	3
0	266195	193.2	3
0	266196	193.2	3
0	266197	193.2	3
0	266198	193.2	3
0	266239	193.25	3
0	266240	193.25	3
0	266241	193.25	3
0	266242	193.25	3
0	266275	193.3	3
0	266276	193.3	3
0	266277	193.3	3
0	266278	193.3	3
0	266279	193.3	3
0	266280	193.3	3
0	266281	193.3	3
0	266282	193.3	3
0	266323	193.35	3
0	266324	193.35	3
0	266325	193.35	3
0	266326	193.35	3
0	266359	193.4	3
0	266360	193.4	3
0	266361	193.4	3
0	266362	193.4	3
0	266363	193.4	3
0	266364	193.4	3
0	266365	193.4	3
0	266366	193.4	3
0	266407	193.45	3
0	266408	193.45	3
0	266409	193.45	3
0	266410	193.45	3
0	266443	193.5	3
0	266444	193.5	3
0	266445	193.5	3
0	266446	193.5	3
0	266447	193.5	3
0	266448	193.5	3
0	266449	193.5	3
0	266450	193.5	3
0	266491	193.55	3
0	266492	193.55	3
0	266493	193.55	3
0	266494	193.55	3
0	266527	193.6	3
0	266528	193.6	3
0	266529	193.6	3
0	266530	193.6	3
0	266531	193.6	3
0	266532	193.6	3
0	266533	193.6	3
0	266534	193.6	3
0	266779	193.65	3
0	266780	193.65	3
0	266781	193.65	3
0	266782	193.65	3
0	266887	193.7	3
0	266888	193.7	3
0	266889	193.7	3
0	266890	193.7	3
0	266891	193.7	3
0	266892	193.7	3
0	266893	193.7	3
0	266894	193.7	3
0	266935	193.75	3
0	266936	193.75	3
0	266937	193.75	3
0	266938	193.75	3
0	266971	193.8	3
0	266972	193.8	3
0	266973	193.8	3
0	266974	193.8	3
0	266975	193.8	3
0	266976	193.8	3
0	266977	193.8	3
0	266978	193.8	3
0	267019	193.85	3
0	267020	193.85	3
0	267021	193.85	3
0	267022	193.85	3
0	267055	193.9	3
0	267056	193.9	3
0	267057	193.9	3
0	267058	193.9	3
0	267059	193.9	3
0	267060	193.9	3
0	267061	193.9	3
0	267062	193.9	3
0	267103	193.95	3
0	267104	193.95	3
0	267105	193.95	3
0	267106	193.95	3
0	267139	194	3
0	267140	194	3
0	267141	194	3
0	267142	194	3
0	267143	194	3
0	267144	194	3
0	267145	194	3
0	267146	194	3
0	267187	194.05	3
0	267188	194.05	3
0	267189	194.05	3
0	267190	194.05	3
0	267223	194.1	3
0	267224	194.1	3
0	267225	194.1	3
0	267226	194.1	3
0	267227	194.1	3
0	267228	194.1	3
0	267229	194.1	3
0	267230	194.1	3
0	267271	194.15	3
0	267272	194.15	3
0	267273	194.15	3
0	267274	194.15	3
0	267511	194.2	3
0	267512	194.2	3
0	267513	194.2	3
0	267514	194.2	3
0	267515	194.2	3
0	267516	194.2	3
0	267517	194.2	3
0	267518	194.2	3
0	267631	194.25	3
0	267632	194.25	3
0	267633	194.25	3
0	267634	194.25	3
0	267667	194.3	3
0	267668	194.3	3
0	267669	194.3	3
0	267670	194.3	3
0	267671	194.3	3
0	267672	194.3	3
0	267673	194.3	3
0	267674	194.3	3
0	267715	194.35	3
0	267716	194.35	3
0	267717	194.35	3
0	267718	194.35	3
0	267751	194.4	3
0	267752	194.4	3
0	267753	194.4	3
0	267754	194.4	3
0	267755	194.4	3
0	267756	194.4	3
0	267757	194.4	3
0	267758	194.4	3
0	267799	194.45	3
0	267800	194.45	3
0	267801	194.45	3
0	267802	194.45	3
0	267835	194.5	3
0	267836	194.5	3
0	267837	194.5	3
0	267838	194.5	3
0	267839	194.5	3
0	267840	194.5	3
0	267841	194.5	3
0	267842	194.5	3
0	267883	194.55	3
0	267884	194.55	3
0	267885	194.55	3
0	267886	194.55	3
0	267919	194.6	3
0	267920	194.6	3
0	267921	194.6	3
0	267922	194.6	3
0	267923	194.6	3
0	267924	194.6	3
0	267925	194.6	3
0	267926	194.6	3
0	267967	194.65	3
0	267968	194.65	3
0	267969	194.65	3
0	267970	194.65	3
0	268003	194.7	3
0	268004	194.7	3
0	268005	194.7	3
0	268006	194.7	3
0	268007	194.7	3
0	268008	194.7	3
0	268009	194.7	3
0	268010	194.7	3
0	268255	194.75	3
0	268256	194.75	3
0	268257	194.75	3
0	268258	194.75	3
0	268363	194.8	3
0	268364	194.8	3
0	268365	194.8	3
0	268366	194.8	3
0	268367	194.8	3
0	268368	194.8	3
0	268369	194.8	3
0	268370	194.8	3
0	268411	194.85	3
0	268412	194.85	3
0	268413	194.85	3
0	268414	194.85	3
0	268447	194.9	3
0	268448	194.9	3
0	268449	194.9	3
0	268450	194.9	3
0	268451	194.9	3
0	268452	194.9	3
0	268453	194.9	3
0	268454	194.9	3
0	268495	194.95	3
0	268496	194.95	3
0	268497	194.95	3
0	268498	194.95	3
0	268531	195	3
0	268532	195	3
0	268533	195	3
0	268534	195	3
0	268535	195	3
0	268536	195	3
0	268537	195	3
0	268538	195	3
0	268579	195.05	3
0	268580	195.05	3
0	268581	195.05	3
0	268582	195.05	3
0	268615	195.1	3
0	268616	195.1	3
0	268617	195.1	3
0	268618	195.1	3
0	268619	195.1	3
0	268620	195.1	3
0	268621	195.1	3
0	268622	195.1	3
0	268663	195.15	3
0	268664	195.15	3
0	268665	195.15	3
0	268666	195.15	3
0	268699	195.2	3
0	268700	195.2	3
0	268701	195.2	3
0	268702	195.2	3
0	268703	195.2	3
0	268704	195.2	3
0	268705	195.2	3
0	268706	195.2	3
0	268747	195.25	3
0	268748	195.25	3
0	268749	195.25	3
0	268750	195.25	3
0	268987	195.3	3
0	268988	195.3	3
0	268989	195.3	3
0	268990	195.3	3
0	268991	195.3	3
0	268992	195.3	3
0	268993	195.3	3
0	268994	195.3	3
0	269107	195.35	3
0	269108	195.35	3
0	269109	195.35	3
0	269110	195.35	3
0	269143	195.4	3
0	269144	195.4	3
0	269145	195.4	3
0	269146	195.4	3
0	269147	195.4	3
0	269148	195.4	3
0	269149	195.4	3
0	269150	195.4	3
0	269191	195.45	3
0	269192	195.45	3
0	269193	195.45	3
0	269194	195.45	3
0	269227	195.5	3
0	269228	195.5	3
0	269229	195.5	3
0	269230	195.5	3
0	269231	195.5	3
0	269232	195.5	3
0	269233	195.5	3
0	269234	195.5	3
0	269275	195.55	3
0	269276	195.55	3
0	269277	195.55	3
0	269278	195.55	3
0	269311	195.6	3
0	269312	195.6	3
0	269313	195.6	3
0	269314	195.6	3
0	269315	195.6	3
0	269316	195.6	3
0	269317	195.6	3
0	269318	195.6	3
0	269359	195.65	3
0	269360	195.65	3
0	269361	195.65	3
0	269362	195.65	3
0	269395	195.7	3
0	269396	195.7	3
0	269397	195.7	3
0	269398	195.7	3
0	269399	195.7	3
0	269400	195.7	3
0	269401	195.7	3
0	269402	195.7	3
0	269443	195.75	3
0	269444	195.75	3
0	269445	195.75	3
0	269446	195.75	3
0	269479	195.8	3
0	269480	195.8	3
0	269481	195.8	3
0	269482	195.8	3
0	269483	195.8	3
0	269484	195.8	3
0	269485	195.8	3
0	269486	195.8	3
0	269731	195.85	3
0	269732	195.85	3
0	269733	195.85	3
0	269734	195.85	3
0	269839	195.9	3
0	269840	195.9	3
0	269841	195.9	3
0	269842	195.9	3
0	269843	195.9	3
0	269844	195.9	3
0	269845	195.9	3
0	269846	195.9	3
0	269887	195.95	3
0	269888	195.95	3
0	269889	195.95	3
0	269890	195.95	3
0	269923	196	3
0	269924	196	3
0	269925	196	3
0	269926	196	3
0	269927	196	3
0	269928	196	3
0	269929	196	3
0	269930	196	3
0	269971	196.05	3
0	269972	196.05	3
0	269973	196.05	3
0	269974	196.05	3
0	270007	196.1	3
0	270008	196.1	3
0	270009	196.1	3
0	270010	196.1	3
0	270011	196.1	3
0	270012	196.1	3
0	270013	196.1	3
0	270014	196.1	3
0	270055	196.15	3
0	270056	196.15	3
0	270057	196.15	3
0	270058	196.15	3
0	270091	196.2	3
0	270092	196.2	3
0	270093	196.2	3
0	270094	196.2	3
0	270095	196.2	3
0	270096	196.2	3
0	270097	196.2	3
0	270098	196.2	3
0	270139	196.25	3
0	270140	196.25	3
0	270141	196.25	3
0	270142	196.25	3
0	270175	196.3	3
0	270176	196.3	3
0	270177	196.3	3
0	270178	196.3	3
0	270179	196.3	3
0	270180	196.3	3
0	270181	196.3	3
0	270182	196.3	3
0	270223	196.35	3
0	270224	196.35	3
0	270225	196.35	3
0	270226	196.35	3
0	270463	196.4	3
0	270464	196.4	3
0	270465	196.4	3
0	270466	196.4	3
0	270467	196.4	3
0	270468	196.4	3
0	270469	196.4	3
0	270470	196.4	3
0	270583	196.45	3
0	270584	196.45	3
0	270585	196.45	3
0	270586	196.45	3
0	270622	196.5	3
0	270623	196.5	3
0	270624	196.5	3
0	270625	196.5	3
0	270626	196.5	3
0	270627	196.5	3
0	270628	196.5	3
0	270629	196.5	3
0	270670	196.55	3
0	270671	196.55	3
0	270672	196.55	3
0	270673	196.55	3
0	270706	196.6	3
0	270707	196.6	3
0	270708	196.6	3
0	270709	196.6	3
0	270710	196.6	3
0	270711	196.6	3
0	270712	196.6	3
0	270713	196.6	3
0	270754	196.65	3
0	270755	196.65	3
0	270756	196.65	3
0	270757	196.65	3
0	270790	196.7	3
0	270791	196.7	3
0	270792	196.7	3
0	270793	196.7	3
0	270794	196.7	3
0	270795	196.7	3
0	270796	196.7	3
0	270797	196.7	3
0	270838	196.75	3
0	270839	196.75	3
0	270840	196.75	3
0	270841	196.75	3
0	270874	196.8	3
0	270875	196.8	3
0	270876	196.8	3
0	270877	196.8	3
0	270878	196.8	3
0	270879	196.8	3
0	270880	196.8	3
0	270881	196.8	3
0	270922	196.85	3
0	270923	196.85	3
0	270924	196.85	3
0	270925	196.85	3
0	270958	196.9	3
0	270959	196.9	3
0	270960	196.9	3
0	270961	196.9	3
0	270962	196.9	3
0	270963	196.9	3
0	270964	196.9	3
0	270965	196.9	3
0	271210	196.95	3
0	271211	196.95	3
0	271212	196.95	3
0	271213	196.95	3
0	271319	197	3
0	271320	197	3
0	271321	197	3
0	271322	197	3
0	271323	197	3
0	271324	197	3
0	271325	197	3
0	271326	197	3
0	271367	197.05	3
0	271368	197.05	3
0	271369	197.05	3
0	271370	197.05	3
0	271403	197.1	3
0	271404	197.1	3
0	271405	197.1	3
0	271406	197.1	3
0	271407	197.1	3
0	271408	197.1	3
0	271409	197.1	3
0	271410	197.1	3
0	271451	197.15	3
0	271452	197.15	3
0	271453	197.15	3
0	271454	197.15	3
0	271487	197.2	3
0	271488	197.2	3
0	271489	197.2	3
0	271490	197.2	3
0	271491	197.2	3
0	271492	197.2	3
0	271493	197.2	3
0	271494	197.2	3
0	271535	197.25	3
0	271536	197.25	3
0	271537	197.25	3
0	271538	197.25	3
0	271571	197.3	3
0	271572	197.3	3
0	271573	197.3	3
0	271574	197.3	3
0	271575	197.3	3
0	271576	197.3	3
0	271577	197.3	3
0	271578	197.3	3
0	271619	197.35	3
0	271620	197.35	3
0	271621	197.35	3
0	271622	197.35	3
0	271655	197.4	3
0	271656	197.4	3
0	271657	197.4	3
0	271658	197.4	3
0	271659	197.4	3
0	271660	197.4	3
0	271661	197.4	3
0	271662	197.4	3
0	271703	197.45	3
0	271704	197.45	3
0	271705	197.45	3
0	271706	197.45	3
0	271943	197.5	3
0	271944	197.5	3
0	271945	197.5	3
0	271946	197.5	3
0	271947	197.5	3
0	271948	197.5	3
0	271949	197.5	3
0	271950	197.5	3
0	272063	197.55	3
0	272064	197.55	3
0	272065	197.55	3
0	272066	197.55	3
0	272099	197.6	3
0	272100	197.6	3
0	272101	197.6	3
0	272102	197.6	3
0	272103	197.6	3
0	272104	197.6	3
0	272105	197.6	3
0	272106	197.6	3
0	272147	197.65	3
0	272148	197.65	3
0	272149	197.65	3
0	272150	197.65	3
0	272183	197.7	3
0	272184	197.7	3
0	272185	197.7	3
0	272186	197.7	3
0	272187	197.7	3
0	272188	197.7	3
0	272189	197.7	3
0	272190	197.7	3
0	272231	197.75	3
0	272232	197.75	3
0	272233	197.75	3
0	272234	197.75	3
0	272267	197.8	3
0	272268	197.8	3
0	272269	197.8	3
0	272270	197.8	3
0	272271	197.8	3
0	272272	197.8	3
0	272273	197.8	3
0	272274	197.8	3
0	272315	197.85	3
0	272316	197.85	3
0	272317	197.85	3
0	272318	197.85	3
0	272351	197.9	3
0	272352	197.9	3
0	272353	197.9	3
0	272354	197.9	3
0	272355	197.9	3
0	272356	197.9	3
0	272357	197.9	3
0	272358	197.9	3
0	272399	197.95	3
0	272400	197.95	3
0	272401	197.95	3
0	272402	197.95	3
0	272435	198	3
0	272436	198	3
0	272437	198	3
0	272438	198	3
0	272439	198	3
0	272440	198	3
0	272441	198	3
0	272442	198	3
0	272687	198.05	3
0	272688	198.05	3
0	272689	198.05	3
0	272690	198.05	3
0	272795	198.1	3
0	272796	198.1	3
0	272797	198.1	3
0	272798	198.1	3
0	272799	198.1	3
0	272800	198.1	3
0	272801	198.1	3
0	272802	198.1	3
0	272843	198.15	3
0	272844	198.15	3
0	272845	198.15	3
0	272846	198.15	3
0	272879	198.2	3
0	272880	198.2	3
0	272881	198.2	3
0	272882	198.2	3
0	272883	198.2	3
0	272884	198.2	3
0	272885	198.2	3
0	272886	198.2	3
0	272927	198.25	3
0	272928	198.25	3
0	272929	198.25	3
0	272930	198.25	3
0	272963	198.3	3
0	272964	198.3	3
0	272965	198.3	3
0	272966	198.3	3
0	272967	198.3	3
0	272968	198.3	3
0	272969	198.3	3
0	272970	198.3	3
0	273011	198.35	3
0	273012	198.35	3
0	273013	198.35	3
0	273014	198.35	3
0	273047	198.4	3
0	273048	198.4	3
0	273049	198.4	3
0	273050	198.4	3
0	273051	198.4	3
0	273052	198.4	3
0	273053	198.4	3
0	273054	198.4	3
0	273095	198.45	3
0	273096	198.45	3
0	273097	198.45	3
0	273098	198.45	3
0	273131	198.5	3
0	273132	198.5	3
0	273133	198.5	3
0	273134	198.5	3
0	273135	198.5	3
0	273136	198.5	3
0	273137	198.5	3
0	273138	198.5	3
0	273179	198.55	3
0	273180	198.55	3
0	273181	198.55	3
0	273182	198.55	3
0	273419	198.6	3
0	273420	198.6	3
0	273421	198.6	3
0	273422	198.6	3
0	273423	198.6	3
0	273424	198.6	3
0	273425	198.6	3
0	273426	198.6	3
0	273539	198.65	3
0	273540	198.65	3
0	273541	198.65	3
0	273542	198.65	3
0	273575	198.7	3
0	273576	198.7	3
0	273577	198.7	3
0	273578	198.7	3
0	273579	198.7	3
0	273580	198.7	3
0	273581	198.7	3
0	273582	198.7	3
0	273623	198.75	3
0	273624	198.75	3
0	273625	198.75	3
0	273626	198.75	3
0	273659	198.8	3
0	273660	198.8	3
0	273661	198.8	3
0	273662	198.8	3
0	273663	198.8	3
0	273664	198.8	3
0	273665	198.8	3
0	273666	198.8	3
0	273707	198.85	3
0	273708	198.85	3
0	273709	198.85	3
0	273710	198.85	3
0	273743	198.9	3
0	273744	198.9	3
0	273745	198.9	3
0	273746	198.9	3
0	273747	198.9	3
0	273748	198.9	3
0	273749	198.9	3
0	273750	198.9	3
0	273791	198.95	3
0	273792	198.95	3
0	273793	198.95	3
0	273794	198.95	3
0	273827	199	3
0	273828	199	3
0	273829	199	3
0	273830	199	3
0	273831	199	3
0	273832	199	3
0	273833	199	3
0	273834	199	3
0	273875	199.05	3
0	273876	199.05	3
0	273877	199.05	3
0	273878	199.05	3
0	273911	199.1	3
0	273912	199.1	3
0	273913	199.1	3
0	273914	199.1	3
0	273915	199.1	3
0	273916	199.1	3
0	273917	199.1	3
0	273918	199.1	3
0	274163	199.15	3
0	274164	199.15	3
0	274165	199.15	3
0	274166	199.15	3
0	274271	199.2	3
0	274272	199.2	3
0	274273	199.2	3
0	274274	199.2	3
0	274275	199.2	3
0	274276	199.2	3
0	274277	199.2	3
0	274278	199.2	3
0	274319	199.25	3
0	274320	199.25	3
0	274321	199.25	3
0	274322	199.25	3
0	274355	199.3	3
0	274356	199.3	3
0	274357	199.3	3
0	274358	199.3	3
0	274359	199.3	3
0	274360	199.3	3
0	274361	199.3	3
0	274362	199.3	3
0	274403	199.35	3
0	274404	199.35	3
0	274405	199.35	3
0	274406	199.35	3
0	274439	199.4	3
0	274440	199.4	3
0	274441	199.4	3
0	274442	199.4	3
0	274443	199.4	3
0	274444	199.4	3
0	274445	199.4	3
0	274446	199.4	3
0	274487	199.45	3
0	274488	199.45	3
0	274489	199.45	3
0	274490	199.45	3
0	274523	199.5	3
0	274524	199.5	3
0	274525	199.5	3
0	274526	199.5	3
0	274527	199.5	3
0	274528	199.5	3
0	274529	199.5	3
0	274530	199.5	3
0	274571	199.55	3
0	274572	199.55	3
0	274573	199.55	3
0	274574	199.55	3
0	274607	199.6	3
0	274608	199.6	3
0	274609	199.6	3
0	274610	199.6	3
0	274611	199.6	3
0	274612	199.6	3
0	274613	199.6	3
0	274614	199.6	3
0	274655	199.65	3
0	274656	199.65	3
0	274657	199.65	3
0	274658	199.65	3
0	274895	199.7	3
0	274896	199.7	3
0	274897	199.7	3
0	274898	199.7	3
0	274899	199.7	3
0	274900	199.7	3
0	274901	199.7	3
0	274902	199.7	3
0	275015	199.75	3
0	275016	199.75	3
0	275017	199.75	3
0	275018	199.75	3
0	275051	199.8	3
0	275052	199.8	3
0	275053	199.8	3
0	275054	199.8	3
0	275055	199.8	3
0	275056	199.8	3
0	275057	199.8	3
0	275058	199.8	3
0	275099	199.85	3
0	275100	199.85	3
0	275101	199.85	3
0	275102	199.85	3
0	275135	199.9	3
0	275136	199.9	3
0	275137	199.9	3
0	275138	199.9	3
0	275139	199.9	3
0	275140	199.9	3
0	275141	199.9	3
0	275142	199.9	3
0	275183	199.95	3
0	275184	199.95	3
0	275185	199.95	3
0	275186	199.95	3
0	275219	200	3
0	275220	200	3
0	275221	200	3
0	275222	200	3
0	275223	200	3
0	275224	200	3
0	275225	200	3
0	275226	200	3

