version 2
run A-0-20190914-00:57:47-26332
attr configname A
attr datetime 20190914-00:57:47
attr experiment A
attr inifile SimV2.ini
attr iterationvars ""
attr iterationvarsf ""
attr measurement ""
attr network NetworkTormV2
attr processid 26332
attr repetition 0
attr replication #0
attr resultdir results
attr runnumber 0
attr seedset 0
param **.mobility.traceFile "\"paths/A.movements\""
param **.numNodes 3
param **.wirelessIfc.wirelessRange 40m
param **.bluetoothIfc.wirelessRange 40m
param **.numNodes 2
param **.application.usedRNG 1
param **.application.dataGenerationInterval 1ms
param **.application.dataSizeInBytes 10
param **.application.ttl 999999s
param **application.destinationAddr "\"Wf:00:00:00:00:02\""
param **application.destinationBTAddr "\"Bt:00:00:00:00:02\""
param **application.nodesThatGen true
param **application.nodesGenMsg "\"0\""
param **application.startMultipleMsg true
param **application.numMultipleMsg 100
param **application.hopsListSize 50
param **.routingLayer "\"RoutingLayer\""
param **.routing.maximumCacheSize 5000byte
param **.routing.maximumHopCount 25
param **.routing.useTTL false
param **.routing.waitBFsend 0.5
param **.routing.max_age 999999s
param **.neighboring.antiEntropyInterval 500ms
param **.neighboring.maximumRandomBackoffDuration 1s
param **.neighboring.delayPerDataMsg 0.1
param **neighboring.usedRNG 2
param **.neighboring.GWAddr "\"02:00:00:00:00:09\""
param **.neighboring.sendWifiFirst true
param **.neighboring.maxLengthGraph 20
param **.neighboring.max_age 999999s
param **.wirelessIfc.wirelessRange 15m
param **.wirelessIfc.neighbourScanInterval 50ms
param **.wirelessIfc.bandwidthBitRate 100000bps
param **.wirelessIfc.wirelessHeaderSize 32byte
param **.wirelessIfc.minSSI -90
param **.bluetoothIfc.wirelessRange 15m
param **.bluetoothIfc.neighbourScanInterval 100ms
param **.bluetoothIfc.bandwidthBitRate 100000bps
param **.bluetoothIfc.wirelessHeaderSize 16byte
param **.bluetoothIfc.minSSI -90
param **.mobilityType "\"BonnMotionMobility\""
param **.mobility.traceFile "\"paths/Moves2.movements\""
param **.mobility.is3D false
param **.mobility.nodeId -1

vector 0 NetworkTormV2 neighbourhoodSize:vector ETV
attr source neighbourhoodSize
vector 1 NetworkTormV2 deliveryRatio:vector ETV
attr source sum(totalDataBytesReceived)/sum(totalDataBytesReceivableByAllNodes)
vector 2 NetworkTormV2 dataBytesReceivedSum:vector ETV
attr source sum(dataBytesReceived)
vector 3 NetworkTormV2 totalBytesReceivedSum:vector ETV
attr source sum(totalBytesReceived)
0	10	0.05	1
0	11	0.05	2
0	12	0.05	1
0	20	0.1	1
0	21	0.1	2
0	22	0.1	1
0	23	0.1	1
0	24	0.1	2
0	25	0.1	1
0	137	0.15	1
0	138	0.15	2
0	139	0.15	1
0	246	0.2	1
0	247	0.2	2
0	248	0.2	1
0	249	0.2	1
0	250	0.2	2
0	251	0.2	1
0	264	0.25	1
0	265	0.25	2
0	266	0.25	1
0	273	0.3	1
0	274	0.3	2
0	275	0.3	1
0	276	0.3	1
0	277	0.3	2
0	278	0.3	1
0	291	0.35	1
0	292	0.35	2
0	293	0.35	1
0	300	0.4	1
0	301	0.4	2
0	302	0.4	1
0	303	0.4	1
0	304	0.4	2
0	305	0.4	1
0	318	0.45	1
0	319	0.45	2
0	320	0.45	1
0	327	0.5	1
0	328	0.5	2
0	329	0.5	1
0	330	0.5	1
0	331	0.5	2
0	332	0.5	1
0	345	0.55	1
0	346	0.55	2
0	347	0.55	1
0	354	0.6	1
0	355	0.6	2
0	356	0.6	1
0	357	0.6	1
0	358	0.6	2
0	359	0.6	1
0	372	0.65	1
0	373	0.65	2
0	374	0.65	1
0	381	0.7	1
0	382	0.7	2
0	383	0.7	1
0	384	0.7	1
0	385	0.7	2
0	386	0.7	1
0	399	0.75	1
0	400	0.75	2
0	401	0.75	1
0	408	0.8	1
0	409	0.8	2
0	410	0.8	1
0	411	0.8	1
0	412	0.8	2
0	413	0.8	1
0	426	0.85	1
0	427	0.85	2
0	428	0.85	1
0	435	0.9	1
0	436	0.9	2
0	437	0.9	1
0	438	0.9	1
0	439	0.9	2
0	440	0.9	1
0	453	0.95	1
0	454	0.95	2
0	455	0.95	1
0	462	1	1
0	463	1	2
0	464	1	1
0	465	1	1
0	466	1	2
0	467	1	1
0	480	1.05	1
0	481	1.05	2
0	482	1.05	1
0	489	1.1	1
0	490	1.1	2
0	491	1.1	1
0	492	1.1	1
0	493	1.1	2
0	494	1.1	1
0	559	1.15	1
0	560	1.15	2
0	561	1.15	1
0	568	1.2	1
0	569	1.2	2
0	570	1.2	1
0	571	1.2	1
0	572	1.2	2
0	573	1.2	1
0	586	1.25	1
0	587	1.25	2
0	588	1.25	1
0	595	1.3	1
0	596	1.3	2
0	597	1.3	1
0	598	1.3	1
0	599	1.3	2
0	600	1.3	1
0	613	1.35	1
0	614	1.35	2
0	615	1.35	1
0	622	1.4	1
0	623	1.4	2
0	624	1.4	1
0	625	1.4	1
0	626	1.4	2
0	627	1.4	1
0	640	1.45	1
0	641	1.45	2
0	642	1.45	1
0	649	1.5	1
0	650	1.5	2
0	651	1.5	1
0	652	1.5	1
0	653	1.5	2
0	654	1.5	1
0	667	1.55	1
0	668	1.55	2
0	669	1.55	1
0	676	1.6	1
0	677	1.6	2
0	678	1.6	1
0	679	1.6	1
0	680	1.6	2
0	681	1.6	1
0	694	1.65	1
0	695	1.65	2
0	696	1.65	1
0	965	1.7	1
0	966	1.7	2
0	967	1.7	1
0	968	1.7	1
0	969	1.7	2
0	970	1.7	1
0	1023	1.75	1
0	1024	1.75	2
0	1025	1.75	1
0	1068	1.8	1
0	1069	1.8	2
0	1070	1.8	1
0	1071	1.8	1
0	1072	1.8	2
0	1073	1.8	1
0	1120	1.85	1
0	1121	1.85	2
0	1122	1.85	1
0	1160	1.9	1
0	1161	1.9	2
0	1162	1.9	1
0	1163	1.9	1
0	1164	1.9	2
0	1165	1.9	1
0	1208	1.95	1
0	1209	1.95	2
0	1210	1.95	1
0	1254	2	1
0	1255	2	2
0	1256	2	1
0	1257	2	1
0	1258	2	2
0	1259	2	1
0	1308	2.05	1
0	1309	2.05	2
0	1310	2.05	1
0	1342	2.1	1
0	1343	2.1	2
0	1344	2.1	1
0	1345	2.1	1
0	1346	2.1	2
0	1347	2.1	1
0	1400	2.15	1
0	1401	2.15	2
0	1402	2.15	1
0	1440	2.2	1
0	1441	2.2	2
0	1442	2.2	1
0	1443	2.2	1
0	1444	2.2	2
0	1445	2.2	1
0	1525	2.25	1
0	1526	2.25	2
0	1527	2.25	1
0	1571	2.3	1
0	1572	2.3	2
0	1573	2.3	1
0	1574	2.3	1
0	1575	2.3	2
0	1576	2.3	1
0	1619	2.35	1
0	1620	2.35	2
0	1621	2.35	1
0	1668	2.4	1
0	1669	2.4	2
0	1670	2.4	1
0	1671	2.4	1
0	1672	2.4	2
0	1673	2.4	1
0	1719	2.45	1
0	1720	2.45	2
0	1721	2.45	1
0	1759	2.5	1
0	1760	2.5	2
0	1761	2.5	1
0	1762	2.5	1
0	1763	2.5	2
0	1764	2.5	1
0	1817	2.55	1
0	1818	2.55	2
0	1819	2.55	1
0	1856	2.6	1
0	1857	2.6	2
0	1858	2.6	1
0	1859	2.6	1
0	1860	2.6	2
0	1861	2.6	1
0	1911	2.65	1
0	1912	2.65	2
0	1913	2.65	1
0	1956	2.7	1
0	1957	2.7	2
0	1958	2.7	1
0	1959	2.7	1
0	1960	2.7	2
0	1961	2.7	1
0	2008	2.75	1
0	2009	2.75	2
0	2010	2.75	1
0	2083	2.8	1
0	2084	2.8	2
0	2085	2.8	1
0	2086	2.8	1
0	2087	2.8	2
0	2088	2.8	1
0	2122	2.85	1
0	2123	2.85	2
0	2124	2.85	1
0	2171	2.9	1
0	2172	2.9	2
0	2173	2.9	1
0	2174	2.9	1
0	2175	2.9	2
0	2176	2.9	1
0	2225	2.95	1
0	2226	2.95	2
0	2227	2.95	1
0	2268	3	1
0	2269	3	2
0	2270	3	1
0	2271	3	1
0	2272	3	2
0	2273	3	1
0	2323	3.05	1
0	2324	3.05	2
0	2325	3.05	1
0	2382	3.1	1
0	2383	3.1	2
0	2384	3.1	1
0	2385	3.1	1
0	2386	3.1	2
0	2387	3.1	1
0	2440	3.15	1
0	2441	3.15	2
0	2442	3.15	1
0	2480	3.2	1
0	2481	3.2	2
0	2482	3.2	1
0	2483	3.2	1
0	2484	3.2	2
0	2485	3.2	1
0	2522	3.25	1
0	2523	3.25	2
0	2524	3.25	1
0	2531	3.3	1
0	2532	3.3	2
0	2533	3.3	1
0	2534	3.3	1
0	2535	3.3	2
0	2536	3.3	1
0	2575	3.35	1
0	2576	3.35	2
0	2577	3.35	1
0	2621	3.4	1
0	2622	3.4	2
0	2623	3.4	1
0	2624	3.4	1
0	2625	3.4	2
0	2626	3.4	1
0	2639	3.45	1
0	2640	3.45	2
0	2641	3.45	1
0	2648	3.5	1
0	2649	3.5	2
0	2650	3.5	1
0	2651	3.5	1
0	2652	3.5	2
0	2653	3.5	1
0	2666	3.55	1
0	2667	3.55	2
0	2668	3.55	1
0	2675	3.6	1
0	2676	3.6	2
0	2677	3.6	1
0	2678	3.6	1
0	2679	3.6	2
0	2680	3.6	1
0	2693	3.65	1
0	2694	3.65	2
0	2695	3.65	1
0	2702	3.7	1
0	2703	3.7	2
0	2704	3.7	1
0	2705	3.7	1
0	2706	3.7	2
0	2707	3.7	1
0	2720	3.75	1
0	2721	3.75	2
0	2722	3.75	1
0	2742	3.8	1
0	2743	3.8	2
0	2744	3.8	1
0	2745	3.8	1
0	2746	3.8	2
0	2747	3.8	1
0	2760	3.85	1
0	2761	3.85	2
0	2762	3.85	1
0	2795	3.9	1
0	2796	3.9	2
0	2797	3.9	1
0	2798	3.9	1
0	2799	3.9	2
0	2800	3.9	1
0	2826	3.95	1
0	2827	3.95	2
0	2828	3.95	1
0	2835	4	1
0	2836	4	2
0	2837	4	1
0	2838	4	1
0	2839	4	2
0	2840	4	1
0	2853	4.05	1
0	2854	4.05	2
0	2855	4.05	1
0	2862	4.1	1
0	2863	4.1	2
0	2864	4.1	1
0	2865	4.1	1
0	2866	4.1	2
0	2867	4.1	1
0	2880	4.15	1
0	2881	4.15	2
0	2882	4.15	1
0	2889	4.2	1
0	2890	4.2	2
0	2891	4.2	1
0	2892	4.2	1
0	2893	4.2	2
0	2894	4.2	1
0	2907	4.25	1
0	2908	4.25	2
0	2909	4.25	1
0	2916	4.3	1
0	2917	4.3	2
0	2918	4.3	1
0	2919	4.3	1
0	2920	4.3	2
0	2921	4.3	1
0	2947	4.35	1
0	2948	4.35	2
0	2949	4.35	1
0	2956	4.4	1
0	2957	4.4	2
0	2958	4.4	1
0	2959	4.4	1
0	2960	4.4	2
0	2961	4.4	1
0	3217	4.45	1
0	3218	4.45	2
0	3219	4.45	1
0	3271	4.5	1
0	3272	4.5	2
0	3273	4.5	1
0	3274	4.5	1
0	3275	4.5	2
0	3276	4.5	1
0	3317	4.55	1
0	3318	4.55	2
0	3319	4.55	1
0	3354	4.6	1
0	3355	4.6	2
0	3356	4.6	1
0	3357	4.6	1
0	3358	4.6	2
0	3359	4.6	1
0	3408	4.65	1
0	3409	4.65	2
0	3410	4.65	1
0	3451	4.7	1
0	3452	4.7	2
0	3453	4.7	1
0	3454	4.7	1
0	3455	4.7	2
0	3456	4.7	1
0	3509	4.75	1
0	3510	4.75	2
0	3511	4.75	1
0	3548	4.8	1
0	3549	4.8	2
0	3550	4.8	1
0	3551	4.8	1
0	3552	4.8	2
0	3553	4.8	1
0	3603	4.85	1
0	3604	4.85	2
0	3605	4.85	1
0	3650	4.9	1
0	3651	4.9	2
0	3652	4.9	1
0	3653	4.9	1
0	3654	4.9	2
0	3655	4.9	1
0	3693	4.95	1
0	3694	4.95	2
0	3695	4.95	1
0	3753	5	1
0	3754	5	2
0	3755	5	1
0	3756	5	1
0	3757	5	2
0	3758	5	1
0	3789	5.05	1
0	3790	5.05	2
0	3791	5.05	1
0	3835	5.1	1
0	3836	5.1	2
0	3837	5.1	1
0	3838	5.1	1
0	3839	5.1	2
0	3840	5.1	1
0	3889	5.15	1
0	3890	5.15	2
0	3891	5.15	1
0	3932	5.2	1
0	3933	5.2	2
0	3934	5.2	1
0	3935	5.2	1
0	3936	5.2	2
0	3937	5.2	1
0	3990	5.25	1
0	3991	5.25	2
0	3992	5.25	1
0	4029	5.3	1
0	4030	5.3	2
0	4031	5.3	1
0	4032	5.3	1
0	4033	5.3	2
0	4034	5.3	1
0	4087	5.35	1
0	4088	5.35	2
0	4089	5.35	1
0	4127	5.4	1
0	4128	5.4	2
0	4129	5.4	1
0	4130	5.4	1
0	4131	5.4	2
0	4132	5.4	1
0	4175	5.45	1
0	4176	5.45	2
0	4177	5.45	1
0	4221	5.5	1
0	4222	5.5	2
0	4223	5.5	1
0	4224	5.5	1
0	4225	5.5	2
0	4226	5.5	1
0	4274	5.55	1
0	4275	5.55	2
0	4276	5.55	1
0	4314	5.6	1
0	4315	5.6	2
0	4316	5.6	1
0	4317	5.6	1
0	4318	5.6	2
0	4319	5.6	1
0	4372	5.65	1
0	4373	5.65	2
0	4374	5.65	1
0	4411	5.7	1
0	4412	5.7	2
0	4413	5.7	1
0	4414	5.7	1
0	4415	5.7	2
0	4416	5.7	1
0	4457	5.75	1
0	4458	5.75	2
0	4459	5.75	1
0	4502	5.8	1
0	4503	5.8	2
0	4504	5.8	1
0	4505	5.8	1
0	4506	5.8	2
0	4507	5.8	1
0	4629	5.85	1
0	4630	5.85	2
0	4631	5.85	1
0	4678	5.9	1
0	4679	5.9	2
0	4680	5.9	1
0	4681	5.9	1
0	4682	5.9	2
0	4683	5.9	1
0	4727	5.95	1
0	4728	5.95	2
0	4729	5.95	1
0	4784	6	1
0	4785	6	2
0	4786	6	1
0	4787	6	1
0	4788	6	2
0	4789	6	1
0	4842	6.05	1
0	4843	6.05	2
0	4844	6.05	1
0	4878	6.1	1
0	4879	6.1	2
0	4880	6.1	1
0	4881	6.1	1
0	4882	6.1	2
0	4883	6.1	1
0	4934	6.15	1
0	4935	6.15	2
0	4936	6.15	1
0	4983	6.2	1
0	4984	6.2	2
0	4985	6.2	1
0	4986	6.2	1
0	4987	6.2	2
0	4988	6.2	1
0	5031	6.25	1
0	5032	6.25	2
0	5033	6.25	1
0	5085	6.3	1
0	5086	6.3	2
0	5087	6.3	1
0	5088	6.3	1
0	5089	6.3	2
0	5090	6.3	1
0	5118	6.35	1
0	5119	6.35	2
0	5120	6.35	1
0	5127	6.4	1
0	5128	6.4	2
0	5129	6.4	1
0	5130	6.4	1
0	5131	6.4	2
0	5132	6.4	1
0	5145	6.45	1
0	5146	6.45	2
0	5147	6.45	1
0	5154	6.5	1
0	5155	6.5	2
0	5156	6.5	1
0	5157	6.5	1
0	5158	6.5	2
0	5159	6.5	1
0	5198	6.55	1
0	5199	6.55	2
0	5200	6.55	1
0	5207	6.6	1
0	5208	6.6	2
0	5209	6.6	1
0	5210	6.6	1
0	5211	6.6	2
0	5212	6.6	1
0	5225	6.65	1
0	5226	6.65	2
0	5227	6.65	1
0	5260	6.7	1
0	5261	6.7	2
0	5262	6.7	1
0	5263	6.7	1
0	5264	6.7	2
0	5265	6.7	1
0	5278	6.75	1
0	5279	6.75	2
0	5280	6.75	1
0	5287	6.8	1
0	5288	6.8	2
0	5289	6.8	1
0	5290	6.8	1
0	5291	6.8	2
0	5292	6.8	1
0	5305	6.85	1
0	5306	6.85	2
0	5307	6.85	1
0	5314	6.9	1
0	5315	6.9	2
0	5316	6.9	1
0	5317	6.9	1
0	5318	6.9	2
0	5319	6.9	1
0	5332	6.95	1
0	5333	6.95	2
0	5334	6.95	1
0	5341	7	1
0	5342	7	2
0	5343	7	1
0	5344	7	1
0	5345	7	2
0	5346	7	1
0	5359	7.05	1
0	5360	7.05	2
0	5361	7.05	1
0	5394	7.1	1
0	5395	7.1	2
0	5396	7.1	1
0	5397	7.1	1
0	5398	7.1	2
0	5399	7.1	1
0	5412	7.15	1
0	5413	7.15	2
0	5414	7.15	1
0	5421	7.2	1
0	5422	7.2	2
0	5423	7.2	1
0	5424	7.2	1
0	5425	7.2	2
0	5426	7.2	1
0	5465	7.25	1
0	5466	7.25	2
0	5467	7.25	1
0	5474	7.3	1
0	5475	7.3	2
0	5476	7.3	1
0	5477	7.3	1
0	5478	7.3	2
0	5479	7.3	1
0	5492	7.35	1
0	5493	7.35	2
0	5494	7.35	1
0	5501	7.4	1
0	5502	7.4	2
0	5503	7.4	1
0	5504	7.4	1
0	5505	7.4	2
0	5506	7.4	1
0	5519	7.45	1
0	5520	7.45	2
0	5521	7.45	1
0	5528	7.5	1
0	5529	7.5	2
0	5530	7.5	1
0	5531	7.5	1
0	5532	7.5	2
0	5533	7.5	1
0	5546	7.55	1
0	5547	7.55	2
0	5548	7.55	1
0	5555	7.6	1
0	5556	7.6	2
0	5557	7.6	1
0	5558	7.6	1
0	5559	7.6	2
0	5560	7.6	1
0	5599	7.65	1
0	5600	7.65	2
0	5601	7.65	1
0	5608	7.7	1
0	5609	7.7	2
0	5610	7.7	1
0	5611	7.7	1
0	5612	7.7	2
0	5613	7.7	1
0	5626	7.75	1
0	5627	7.75	2
0	5628	7.75	1
0	5661	7.8	1
0	5662	7.8	2
0	5663	7.8	1
0	5664	7.8	1
0	5665	7.8	2
0	5666	7.8	1
0	5679	7.85	1
0	5680	7.85	2
0	5681	7.85	1
0	5688	7.9	1
0	5689	7.9	2
0	5690	7.9	1
0	5691	7.9	1
0	5692	7.9	2
0	5693	7.9	1
0	5706	7.95	1
0	5707	7.95	2
0	5708	7.95	1
0	5715	8	1
0	5716	8	2
0	5717	8	1
0	5718	8	1
0	5719	8	2
0	5720	8	1
0	5733	8.05	1
0	5734	8.05	2
0	5735	8.05	1
0	5742	8.1	1
0	5743	8.1	2
0	5744	8.1	1
0	5745	8.1	1
0	5746	8.1	2
0	5747	8.1	1
0	5760	8.15	1
0	5761	8.15	2
0	5762	8.15	1
0	5795	8.2	1
0	5796	8.2	2
0	5797	8.2	1
0	5798	8.2	1
0	5799	8.2	2
0	5800	8.2	1
0	5813	8.25	1
0	5814	8.25	2
0	5815	8.25	1
0	5822	8.3	1
0	5823	8.3	2
0	5824	8.3	1
0	5825	8.3	1
0	5826	8.3	2
0	5827	8.3	1
0	5866	8.35	1
0	5867	8.35	2
0	5868	8.35	1
0	5875	8.4	1
0	5876	8.4	2
0	5877	8.4	1
0	5878	8.4	1
0	5879	8.4	2
0	5880	8.4	1
0	5893	8.45	1
0	5894	8.45	2
0	5895	8.45	1
0	5902	8.5	1
0	5903	8.5	2
0	5904	8.5	1
0	5905	8.5	1
0	5906	8.5	2
0	5907	8.5	1
0	5920	8.55	1
0	5921	8.55	2
0	5922	8.55	1
0	5929	8.6	1
0	5930	8.6	2
0	5931	8.6	1
0	5932	8.6	1
0	5933	8.6	2
0	5934	8.6	1
0	5947	8.65	1
0	5948	8.65	2
0	5949	8.65	1
0	5956	8.7	1
0	5957	8.7	2
0	5958	8.7	1
0	5959	8.7	1
0	5960	8.7	2
0	5961	8.7	1
0	6000	8.75	1
0	6001	8.75	2
0	6002	8.75	1
0	6009	8.8	1
0	6010	8.8	2
0	6011	8.8	1
0	6012	8.8	1
0	6013	8.8	2
0	6014	8.8	1
0	6027	8.85	1
0	6028	8.85	2
0	6029	8.85	1
0	6062	8.9	1
0	6063	8.9	2
0	6064	8.9	1
0	6065	8.9	1
0	6066	8.9	2
0	6067	8.9	1
0	6080	8.95	1
0	6081	8.95	2
0	6082	8.95	1
0	6089	9	1
0	6090	9	2
0	6091	9	1
0	6092	9	1
0	6093	9	2
0	6094	9	1
0	6107	9.05	1
0	6108	9.05	2
0	6109	9.05	1
0	6116	9.1	1
0	6117	9.1	2
0	6118	9.1	1
0	6119	9.1	1
0	6120	9.1	2
0	6121	9.1	1
0	6134	9.15	1
0	6135	9.15	2
0	6136	9.15	1
0	6143	9.2	1
0	6144	9.2	2
0	6145	9.2	1
0	6146	9.2	1
0	6147	9.2	2
0	6148	9.2	1
0	6161	9.25	1
0	6162	9.25	2
0	6163	9.25	1
0	6196	9.3	1
0	6197	9.3	2
0	6198	9.3	1
0	6199	9.3	1
0	6200	9.3	2
0	6201	9.3	1
0	6214	9.35	1
0	6215	9.35	2
0	6216	9.35	1
0	6223	9.4	1
0	6224	9.4	2
0	6225	9.4	1
0	6226	9.4	1
0	6227	9.4	2
0	6228	9.4	1
0	6267	9.45	1
0	6268	9.45	2
0	6269	9.45	1
0	6276	9.5	1
0	6277	9.5	2
0	6278	9.5	1
0	6279	9.5	1
0	6280	9.5	2
0	6281	9.5	1
0	6294	9.55	1
0	6295	9.55	2
0	6296	9.55	1
0	6303	9.6	1
0	6304	9.6	2
0	6305	9.6	1
0	6306	9.6	1
0	6307	9.6	2
0	6308	9.6	1
0	6321	9.65	1
0	6322	9.65	2
0	6323	9.65	1
0	6330	9.7	1
0	6331	9.7	2
0	6332	9.7	1
0	6333	9.7	1
0	6334	9.7	2
0	6335	9.7	1
0	6348	9.75	1
0	6349	9.75	2
0	6350	9.75	1
0	6357	9.8	1
0	6358	9.8	2
0	6359	9.8	1
0	6360	9.8	1
0	6361	9.8	2
0	6362	9.8	1
0	6401	9.85	1
0	6402	9.85	2
0	6403	9.85	1
0	6410	9.9	1
0	6411	9.9	2
0	6412	9.9	1
0	6413	9.9	1
0	6414	9.9	2
0	6415	9.9	1
0	6428	9.95	1
0	6429	9.95	2
0	6430	9.95	1
0	6463	10	1
0	6464	10	2
0	6465	10	1
0	6466	10	1
0	6467	10	2
0	6468	10	1
1	19	0.1	-nan
1	39	0.101	-nan
1	41	0.102	-nan
1	43	0.103	-nan
1	45	0.104	-nan
1	47	0.105	-nan
1	49	0.106	-nan
1	51	0.107	-nan
1	53	0.108	-nan
1	55	0.109	-nan
1	57	0.11	-nan
1	59	0.111	-nan
1	61	0.112	-nan
1	63	0.113	-nan
1	65	0.114	-nan
1	67	0.115	-nan
1	69	0.116	-nan
1	71	0.117	-nan
1	73	0.118	-nan
1	75	0.119	-nan
1	77	0.12	-nan
1	79	0.121	-nan
1	81	0.122	-nan
1	83	0.123	-nan
1	85	0.124	-nan
1	87	0.125	-nan
1	89	0.126	-nan
1	91	0.127	-nan
1	93	0.128	-nan
1	95	0.129	-nan
1	97	0.13	-nan
1	99	0.131	-nan
1	101	0.132	-nan
1	103	0.133	-nan
1	105	0.134	-nan
1	107	0.135	-nan
1	109	0.136	-nan
1	111	0.137	-nan
1	113	0.138	-nan
1	115	0.139	-nan
1	117	0.14	-nan
1	119	0.141	-nan
1	121	0.142	-nan
1	123	0.143	-nan
1	125	0.144	-nan
1	127	0.145	-nan
1	129	0.146	-nan
1	131	0.147	-nan
1	133	0.148	-nan
1	135	0.149	-nan
1	140	0.15	-nan
1	148	0.151	-nan
1	150	0.152	-nan
1	152	0.153	-nan
1	154	0.154	-nan
1	156	0.155	-nan
1	158	0.156	-nan
1	160	0.157	-nan
1	162	0.158	-nan
1	164	0.159	-nan
1	166	0.16	-nan
1	168	0.161	-nan
1	170	0.162	-nan
1	172	0.163	-nan
1	174	0.164	-nan
1	176	0.165	-nan
1	178	0.166	-nan
1	180	0.167	-nan
1	182	0.168	-nan
1	184	0.169	-nan
1	186	0.17	-nan
1	188	0.171	-nan
1	190	0.172	-nan
1	192	0.173	-nan
1	194	0.174	-nan
1	196	0.175	-nan
1	198	0.176	-nan
1	200	0.177	-nan
1	202	0.178	-nan
1	204	0.179	-nan
1	206	0.18	-nan
1	208	0.181	-nan
1	210	0.182	-nan
1	212	0.183	-nan
1	214	0.184	-nan
1	216	0.185	-nan
1	218	0.186	-nan
1	220	0.187	-nan
1	222	0.188	-nan
1	224	0.189	-nan
1	226	0.19	-nan
1	228	0.191	-nan
1	230	0.192	-nan
1	232	0.193	-nan
1	234	0.194	-nan
1	236	0.195	-nan
1	238	0.196	-nan
1	240	0.197	-nan
1	242	0.198	-nan
1	244	0.199	-nan
2	958	1.688032534095	141
2	986	1.701872534095	282
2	996	1.715712534095	423
2	1006	1.729552534095	564
2	1016	1.743392534095	705
2	1035	1.757232534095	846
2	1045	1.771072534095	987
2	1055	1.784912534095	1128
2	1065	1.798752534095	1269
2	1093	1.812592534095	1410
2	1103	1.826432534095	1551
2	1113	1.840272534095	1692
2	1132	1.854112534095	1833
2	1142	1.867952534095	1974
2	1152	1.881792534095	2115
2	1181	1.909472534095	2256
2	1191	1.923312534095	2397
2	1201	1.937152534095	2538
2	1220	1.950992534095	2679
2	1230	1.964832534095	2820
2	1240	1.978672534095	2961
2	1247	1.992512534095	3102
2	1275	2.006352534095	3243
2	1285	2.020192534095	3384
2	1295	2.034032534095	3525
2	1305	2.047872534095	3666
2	1324	2.061712534095	3807
2	1335	2.089392534095	3948
2	1363	2.103232534095	4089
2	1373	2.117072534095	4230
2	1383	2.130912534095	4371
2	1393	2.144752534095	4512
2	1412	2.158592534095	4653
2	1422	2.172432534095	4794
2	1432	2.186272534095	4935
2	1468	2.200112534095	5076
2	1482	2.213952534095	5217
2	1507	2.227792534095	5358
2	1521	2.241632534095	5499
2	1537	2.255472534095	5640
2	1547	2.269312534095	5781
2	1557	2.283152534095	5922
2	1564	2.296992534095	6063
2	1592	2.310832534095	6204
2	1602	2.324672534095	6345
2	1612	2.338512534095	6486
2	1631	2.352352534095	6627
2	1641	2.366192534095	6768
2	1651	2.380032534095	6909
2	1661	2.393872534095	7050
2	1689	2.407712534095	7191
2	1696	2.421552534095	7332
2	1706	2.435392534095	7473
2	1716	2.449232534095	7614
2	1735	2.463072534095	7755
2	1742	2.476912534095	7896
2	1752	2.490752534095	8037
2	1780	2.504592534095	8178
2	1790	2.518432534095	8319
2	1800	2.532272534095	8460
2	1810	2.546112534095	8601
2	1829	2.559952534095	8742
2	1839	2.573792534095	8883
2	1849	2.587632534095	9024
2	1877	2.601472534095	9165
2	1884	2.615312534095	9306
2	1894	2.629152534095	9447
2	1904	2.642992534095	9588
2	1923	2.656832534095	9729
2	1933	2.670672534095	9870
2	1943	2.684512534095	10011
2	1953	2.698352534095	10152
2	1981	2.712192534095	10293
2	1991	2.726032534095	10434
2	2001	2.739872534095	10575
2	2024	2.753712534095	10716
2	2056	2.767552534095	10857
2	2066	2.781392534095	10998
2	2076	2.795232534095	11139
2	2104	2.809072534095	11280
2	2114	2.822912534095	11421
2	2134	2.850592534095	11562
2	2144	2.864432534095	11703
2	2154	2.878272534095	11844
2	2164	2.892112534095	11985
2	2192	2.905952534095	12126
2	2202	2.919792534095	12267
2	2212	2.933632534095	12408
2	2222	2.947472534095	12549
2	2241	2.961312534095	12690
2	2251	2.975152534095	12831
2	2261	2.988992534095	12972
2	2289	3.002832534095	13113
2	2299	3.016672534095	13254
2	2306	3.030512534095	13395
2	2316	3.044352534095	13536
2	2335	3.058192534095	13677
2	2375	3.086501727181	13818
2	2403	3.100341727181	13959
2	2413	3.114181727181	14100
2	2423	3.128021727181	14241
2	2433	3.141861727181	14382
2	2453	3.169541727181	14523
2	2463	3.183381727181	14664
2	2473	3.197221727181	14805
2	2511	3.224901727181	14946
2	2604	3.378453385287	15087
2	2614	3.392293385287	15228
2	3203	4.428453385287	15369
2	3213	4.442293385287	15510
2	3231	4.456133385287	15651
2	3248	4.469973385287	15792
2	3258	4.483813385287	15933
2	3268	4.497653385287	16074
2	3296	4.511493385287	16215
2	3306	4.525333385287	16356
2	3313	4.539173385287	16497
2	3330	4.566853385287	16638
2	3340	4.580693385287	16779
2	3350	4.594533385287	16920
2	3375	4.608373385287	17061
2	3385	4.622213385287	17202
2	3395	4.636053385287	17343
2	3405	4.649893385287	17484
2	3424	4.663733385287	17625
2	3434	4.677573385287	17766
2	3444	4.691413385287	17907
2	3472	4.705253385287	18048
2	3482	4.719093385287	18189
2	3492	4.732933385287	18330
2	3502	4.746773385287	18471
2	3521	4.760613385287	18612
2	3531	4.774453385287	18753
2	3541	4.788293385287	18894
2	3569	4.802133385287	19035
2	3579	4.815973385287	19176
2	3586	4.829813385287	19317
2	3596	4.843653385287	19458
2	3617	4.857493385287	19599
2	3627	4.871333385287	19740
2	3637	4.885173385287	19881
2	3647	4.899013385287	20022
2	3675	4.912853385287	20163
2	3685	4.926693385287	20304
2	3709	4.954373385287	20445
2	3726	4.968213385287	20586
2	3736	4.982053385287	20727
2	3746	4.995893385287	20868
2	3774	5.009733385287	21009
2	3781	5.023573385287	21150
2	3801	5.051253385287	21291
2	3808	5.065093385287	21432
2	3818	5.078933385287	21573
2	3828	5.092773385287	21714
2	3856	5.106613385287	21855
2	3866	5.120453385287	21996
2	3876	5.134293385287	22137
2	3886	5.148133385287	22278
2	3905	5.161973385287	22419
2	3915	5.175813385287	22560
2	3925	5.189653385287	22701
2	3953	5.203493385287	22842
2	3963	5.217333385287	22983
2	3973	5.231173385287	23124
2	3983	5.245013385287	23265
2	4002	5.258853385287	23406
2	4012	5.272693385287	23547
2	4022	5.286533385287	23688
2	4050	5.300373385287	23829
2	4060	5.314213385287	23970
2	4070	5.328053385287	24111
2	4080	5.341893385287	24252
2	4099	5.355733385287	24393
2	4110	5.383413385287	24534
2	4120	5.397253385287	24675
2	4148	5.411093385287	24816
2	4158	5.424933385287	24957
2	4168	5.438773385287	25098
2	4187	5.452613385287	25239
2	4197	5.466453385287	25380
2	4207	5.480293385287	25521
2	4217	5.494133385287	25662
2	4244	5.507973385287	25803
2	4254	5.521813385287	25944
2	4264	5.535653385287	26085
2	4271	5.549493385287	26226
2	4290	5.563333385287	26367
2	4300	5.577173385287	26508
2	4307	5.591013385287	26649
2	4335	5.604853385287	26790
2	4345	5.618693385287	26931
2	4355	5.632533385287	27072
2	4365	5.646373385287	27213
2	4384	5.660213385287	27354
2	4394	5.674053385287	27495
2	4404	5.687893385287	27636
2	4432	5.701733385287	27777
2	4440	5.729413385287	27918
2	4450	5.743253385287	28059
2	4469	5.757093385287	28200
2	4479	5.770933385287	28341
2	4489	5.784773385287	28482
2	4499	5.798613385287	28623
2	4641	5.850773385287	28764
2	4651	5.864613385287	28905
2	4661	5.878453385287	29046
2	4671	5.892293385287	29187
2	4699	5.906133385287	29328
2	4709	5.919973385287	29469
2	4719	5.933813385287	29610
2	4757	5.961493385287	29751
2	4767	5.975333385287	29892
2	4777	5.989173385287	30033
2	4805	6.003013385287	30174
2	4815	6.016853385287	30315
2	4825	6.030693385287	30456
2	4835	6.044533385287	30597
2	4854	6.058373385287	30738
2	4864	6.072213385287	30879
2	4875	6.099893385287	31020
2	4907	6.113733385287	31161
2	4917	6.127573385287	31302
2	4927	6.141413385287	31443
2	4946	6.155253385287	31584
2	4956	6.169093385287	31725
2	4966	6.182933385287	31866
2	4976	6.196773385287	32007
2	5004	6.210613385287	32148
2	5014	6.224453385287	32289
2	5024	6.238293385287	32430
2	5043	6.252133385287	32571
2	5053	6.265973385287	32712
2	5063	6.279813385287	32853
3	958	1.688032534095	141
3	986	1.701872534095	282
3	996	1.715712534095	423
3	1006	1.729552534095	564
3	1016	1.743392534095	705
3	1035	1.757232534095	846
3	1045	1.771072534095	987
3	1055	1.784912534095	1128
3	1065	1.798752534095	1269
3	1093	1.812592534095	1410
3	1103	1.826432534095	1551
3	1113	1.840272534095	1692
3	1132	1.854112534095	1833
3	1142	1.867952534095	1974
3	1152	1.881792534095	2115
3	1181	1.909472534095	2256
3	1191	1.923312534095	2397
3	1201	1.937152534095	2538
3	1220	1.950992534095	2679
3	1230	1.964832534095	2820
3	1240	1.978672534095	2961
3	1247	1.992512534095	3102
3	1275	2.006352534095	3243
3	1285	2.020192534095	3384
3	1295	2.034032534095	3525
3	1305	2.047872534095	3666
3	1324	2.061712534095	3807
3	1335	2.089392534095	3948
3	1363	2.103232534095	4089
3	1373	2.117072534095	4230
3	1383	2.130912534095	4371
3	1393	2.144752534095	4512
3	1412	2.158592534095	4653
3	1422	2.172432534095	4794
3	1432	2.186272534095	4935
3	1468	2.200112534095	5076
3	1482	2.213952534095	5217
3	1507	2.227792534095	5358
3	1521	2.241632534095	5499
3	1537	2.255472534095	5640
3	1547	2.269312534095	5781
3	1557	2.283152534095	5922
3	1564	2.296992534095	6063
3	1592	2.310832534095	6204
3	1602	2.324672534095	6345
3	1612	2.338512534095	6486
3	1631	2.352352534095	6627
3	1641	2.366192534095	6768
3	1651	2.380032534095	6909
3	1661	2.393872534095	7050
3	1689	2.407712534095	7191
3	1696	2.421552534095	7332
3	1706	2.435392534095	7473
3	1716	2.449232534095	7614
3	1735	2.463072534095	7755
3	1742	2.476912534095	7896
3	1752	2.490752534095	8037
3	1780	2.504592534095	8178
3	1790	2.518432534095	8319
3	1800	2.532272534095	8460
3	1810	2.546112534095	8601
3	1829	2.559952534095	8742
3	1839	2.573792534095	8883
3	1849	2.587632534095	9024
3	1877	2.601472534095	9165
3	1884	2.615312534095	9306
3	1894	2.629152534095	9447
3	1904	2.642992534095	9588
3	1923	2.656832534095	9729
3	1933	2.670672534095	9870
3	1943	2.684512534095	10011
3	1953	2.698352534095	10152
3	1981	2.712192534095	10293
3	1991	2.726032534095	10434
3	2001	2.739872534095	10575
3	2024	2.753712534095	10716
3	2056	2.767552534095	10857
3	2066	2.781392534095	10998
3	2076	2.795232534095	11139
3	2104	2.809072534095	11280
3	2114	2.822912534095	11421
3	2134	2.850592534095	11562
3	2144	2.864432534095	11703
3	2154	2.878272534095	11844
3	2164	2.892112534095	11985
3	2192	2.905952534095	12126
3	2202	2.919792534095	12267
3	2212	2.933632534095	12408
3	2222	2.947472534095	12549
3	2241	2.961312534095	12690
3	2251	2.975152534095	12831
3	2261	2.988992534095	12972
3	2289	3.002832534095	13113
3	2299	3.016672534095	13254
3	2306	3.030512534095	13395
3	2316	3.044352534095	13536
3	2335	3.058192534095	13677
3	2375	3.086501727181	13818
3	2403	3.100341727181	13959
3	2413	3.114181727181	14100
3	2423	3.128021727181	14241
3	2433	3.141861727181	14382
3	2453	3.169541727181	14523
3	2463	3.183381727181	14664
3	2473	3.197221727181	14805
3	2511	3.224901727181	14946
3	2604	3.378453385287	15087
3	2614	3.392293385287	15228
3	3203	4.428453385287	15369
3	3213	4.442293385287	15510
3	3231	4.456133385287	15651
3	3248	4.469973385287	15792
3	3258	4.483813385287	15933
3	3268	4.497653385287	16074
3	3296	4.511493385287	16215
3	3306	4.525333385287	16356
3	3313	4.539173385287	16497
3	3330	4.566853385287	16638
3	3340	4.580693385287	16779
3	3350	4.594533385287	16920
3	3375	4.608373385287	17061
3	3385	4.622213385287	17202
3	3395	4.636053385287	17343
3	3405	4.649893385287	17484
3	3424	4.663733385287	17625
3	3434	4.677573385287	17766
3	3444	4.691413385287	17907
3	3472	4.705253385287	18048
3	3482	4.719093385287	18189
3	3492	4.732933385287	18330
3	3502	4.746773385287	18471
3	3521	4.760613385287	18612
3	3531	4.774453385287	18753
3	3541	4.788293385287	18894
3	3569	4.802133385287	19035
3	3579	4.815973385287	19176
3	3586	4.829813385287	19317
3	3596	4.843653385287	19458
3	3617	4.857493385287	19599
3	3627	4.871333385287	19740
3	3637	4.885173385287	19881
3	3647	4.899013385287	20022
3	3675	4.912853385287	20163
3	3685	4.926693385287	20304
3	3709	4.954373385287	20445
3	3726	4.968213385287	20586
3	3736	4.982053385287	20727
3	3746	4.995893385287	20868
3	3774	5.009733385287	21009
3	3781	5.023573385287	21150
3	3801	5.051253385287	21291
3	3808	5.065093385287	21432
3	3818	5.078933385287	21573
3	3828	5.092773385287	21714
3	3856	5.106613385287	21855
3	3866	5.120453385287	21996
3	3876	5.134293385287	22137
3	3886	5.148133385287	22278
3	3905	5.161973385287	22419
3	3915	5.175813385287	22560
3	3925	5.189653385287	22701
3	3953	5.203493385287	22842
3	3963	5.217333385287	22983
3	3973	5.231173385287	23124
3	3983	5.245013385287	23265
3	4002	5.258853385287	23406
3	4012	5.272693385287	23547
3	4022	5.286533385287	23688
3	4050	5.300373385287	23829
3	4060	5.314213385287	23970
3	4070	5.328053385287	24111
3	4080	5.341893385287	24252
3	4099	5.355733385287	24393
3	4110	5.383413385287	24534
3	4120	5.397253385287	24675
3	4148	5.411093385287	24816
3	4158	5.424933385287	24957
3	4168	5.438773385287	25098
3	4187	5.452613385287	25239
3	4197	5.466453385287	25380
3	4207	5.480293385287	25521
3	4217	5.494133385287	25662
3	4244	5.507973385287	25803
3	4254	5.521813385287	25944
3	4264	5.535653385287	26085
3	4271	5.549493385287	26226
3	4290	5.563333385287	26367
3	4300	5.577173385287	26508
3	4307	5.591013385287	26649
3	4335	5.604853385287	26790
3	4345	5.618693385287	26931
3	4355	5.632533385287	27072
3	4365	5.646373385287	27213
3	4384	5.660213385287	27354
3	4394	5.674053385287	27495
3	4404	5.687893385287	27636
3	4432	5.701733385287	27777
3	4440	5.729413385287	27918
3	4450	5.743253385287	28059
3	4469	5.757093385287	28200
3	4479	5.770933385287	28341
3	4489	5.784773385287	28482
3	4499	5.798613385287	28623
3	4641	5.850773385287	28764
3	4651	5.864613385287	28905
3	4661	5.878453385287	29046
3	4671	5.892293385287	29187
3	4699	5.906133385287	29328
3	4709	5.919973385287	29469
3	4719	5.933813385287	29610
3	4757	5.961493385287	29751
3	4767	5.975333385287	29892
3	4777	5.989173385287	30033
3	4805	6.003013385287	30174
3	4815	6.016853385287	30315
3	4825	6.030693385287	30456
3	4835	6.044533385287	30597
3	4854	6.058373385287	30738
3	4864	6.072213385287	30879
3	4875	6.099893385287	31020
3	4907	6.113733385287	31161
3	4917	6.127573385287	31302
3	4927	6.141413385287	31443
3	4946	6.155253385287	31584
3	4956	6.169093385287	31725
3	4966	6.182933385287	31866
3	4976	6.196773385287	32007
3	5004	6.210613385287	32148
3	5014	6.224453385287	32289
3	5024	6.238293385287	32430
3	5043	6.252133385287	32571
3	5053	6.265973385287	32712
3	5063	6.279813385287	32853

