version 2
run A-0-20191115-15:12:22-10633
attr configname A
attr datetime 20191115-15:12:22
attr experiment A
attr inifile GwSimV2.ini
attr iterationvars ""
attr iterationvarsf ""
attr measurement ""
attr network NetworkTormV2
attr processid 10633
attr repetition 0
attr replication #0
attr resultdir results
attr runnumber 0
attr seedset 0
param **.mobility.traceFile "\"AllPaths/mobPaths/A.movements\""
param **.numNodes 11
param **.application.dataGenerationInterval 1s
param **.application.dataSizeInBytes 10
param **.application.ttl 999999s
param **application.nodesThatGen false
param **application.nodesGenMsg "\"\""
param **application.startMultipleMsg false
param **application.numMultipleMsg 100
param **application.hopsListSize 50
param **.application.endGeneratingMsg 149s
param **.routingLayer "\"RoutingLqeGw\""
param **.routing.maximumCacheSize 5000byte
param **.routing.maximumHopCount 25
param **.routing.useTTL false
param **.routing.waitBFsend 0.1
param **.routing.max_age 999999s
param **.routing.gateway_list "\"\""
param **.routing.actual_gateway "\"\""
param **.routing.gwCheckPeriod 5s
param **.neighboring.resetGPeriod 999s
param **.wirelessIfc.wirelessRange 40m
param **.numNodes 2
param **.application.usedRNG 1
param **.application.dataGenerationInterval 1s
param **.application.dataSizeInBytes 10
param **.application.ttl 999999s
param **application.destinationAddr "\"Wf:00:00:00:00:02\""
param **application.destinationBTAddr "\"Bt:00:00:00:00:02\""
param **application.nodesThatGen true
param **application.nodesGenMsg "\"0\""
param **application.startMultipleMsg true
param **application.numMultipleMsg 100
param **application.hopsListSize 50
param **.application.endGeneratingMsg 999999s
param **.routingLayer "\"RoutingLqeGw\""
param **.routing.maximumCacheSize 5000byte
param **.routing.maximumHopCount 25
param **.routing.useTTL false
param **.routing.waitBFsend 0.1
param **.routing.max_age 999999s
param **.routing.gateway_list "\"\""
param **.routing.actual_gateway "\"\""
param **.routing.gwCheckPeriod 5s
param **.neighboring.antiEntropyInterval 500ms
param **.neighboring.maximumRandomBackoffDuration 1s
param **.neighboring.delayPerDataMsg 0.1
param **neighboring.usedRNG 2
param **.neighboring.GWAddr "\"Wf:00:00:00:00:02\""
param **.neighboring.sendWifiFirst true
param **.neighboring.max_age 999999s
param **.neighboring.max_absent_time 1s
param **.neighboring.maxLengthGraph 15
param **.wirelessIfc.wirelessRange 40m
param **.wirelessIfc.neighbourScanInterval 50ms
param **.wirelessIfc.bandwidthBitRate 100000bps
param **.wirelessIfc.wirelessHeaderSize 32byte
param **.wirelessIfc.minSSI -90
param **.wirelessIfc.limitQueueTime 400ms
param **.wirelessIfc.my_limit_rate 0bps
param **.bluetoothIfc.wirelessRange 40m
param **.bluetoothIfc.neighbourScanInterval 100ms
param **.bluetoothIfc.bandwidthBitRate 100000bps
param **.bluetoothIfc.wirelessHeaderSize 16byte
param **.bluetoothIfc.minSSI -90
param **.mobilityType "\"BonnMotionMobility\""
param **.mobility.traceFile "\"paths/Moves2.movements\""
param **.mobility.is3D false
param **.mobility.nodeId -1

vector 0 NetworkTormV2 neighbourhoodSize:vector ETV
attr source neighbourhoodSize
vector 1 NetworkTormV2 deliveryRatio:vector ETV
attr source sum(totalDataBytesReceived)/sum(totalDataBytesReceivableByAllNodes)
vector 2 NetworkTormV2 dataBytesReceivedSum:vector ETV
attr source sum(dataBytesReceived)
vector 3 NetworkTormV2 totalBytesReceivedSum:vector ETV
attr source sum(totalBytesReceived)
0	34	0.05	3
0	35	0.05	5
0	36	0.05	3
0	37	0.05	5
0	38	0.05	8
0	39	0.05	5
0	40	0.05	3
0	41	0.05	5
0	42	0.05	3
0	43	0.05	1
0	44	0.05	1
0	134	0.1	3
0	136	0.1	5
0	138	0.1	3
0	140	0.1	5
0	142	0.1	8
0	144	0.1	5
0	146	0.1	3
0	148	0.1	5
0	150	0.1	3
0	152	0.1	1
0	154	0.1	1
0	155	0.1	3
0	156	0.1	5
0	157	0.1	3
0	158	0.1	5
0	159	0.1	8
0	160	0.1	5
0	161	0.1	3
0	162	0.1	5
0	163	0.1	3
0	164	0.1	1
0	165	0.1	1
0	287	0.15	3
0	288	0.15	5
0	289	0.15	3
0	290	0.15	5
0	291	0.15	8
0	292	0.15	5
0	293	0.15	3
0	294	0.15	5
0	295	0.15	3
0	296	0.15	1
0	297	0.15	1
0	386	0.2	3
0	387	0.2	5
0	388	0.2	3
0	389	0.2	5
0	390	0.2	8
0	391	0.2	5
0	392	0.2	3
0	393	0.2	5
0	394	0.2	3
0	395	0.2	1
0	396	0.2	1
0	397	0.2	3
0	398	0.2	5
0	399	0.2	3
0	400	0.2	5
0	401	0.2	8
0	402	0.2	5
0	403	0.2	3
0	404	0.2	5
0	405	0.2	3
0	406	0.2	1
0	407	0.2	1
0	518	0.25	3
0	519	0.25	5
0	520	0.25	3
0	521	0.25	5
0	522	0.25	8
0	523	0.25	5
0	524	0.25	3
0	525	0.25	5
0	526	0.25	3
0	527	0.25	1
0	528	0.25	1
0	617	0.3	3
0	618	0.3	5
0	619	0.3	3
0	620	0.3	5
0	621	0.3	8
0	622	0.3	5
0	623	0.3	3
0	624	0.3	5
0	625	0.3	3
0	626	0.3	1
0	627	0.3	1
0	628	0.3	3
0	629	0.3	5
0	630	0.3	3
0	631	0.3	5
0	632	0.3	8
0	633	0.3	5
0	634	0.3	3
0	635	0.3	5
0	636	0.3	3
0	637	0.3	1
0	638	0.3	1
0	749	0.35	3
0	750	0.35	5
0	751	0.35	3
0	752	0.35	5
0	753	0.35	8
0	754	0.35	5
0	755	0.35	3
0	756	0.35	5
0	757	0.35	3
0	758	0.35	1
0	759	0.35	1
0	848	0.4	3
0	849	0.4	5
0	850	0.4	3
0	851	0.4	5
0	852	0.4	8
0	853	0.4	5
0	854	0.4	3
0	855	0.4	5
0	856	0.4	3
0	857	0.4	1
0	858	0.4	1
0	859	0.4	3
0	860	0.4	5
0	861	0.4	3
0	862	0.4	5
0	863	0.4	8
0	864	0.4	5
0	865	0.4	3
0	866	0.4	5
0	867	0.4	3
0	868	0.4	1
0	869	0.4	1
0	980	0.45	3
0	981	0.45	5
0	982	0.45	3
0	983	0.45	5
0	984	0.45	8
0	985	0.45	5
0	986	0.45	3
0	987	0.45	5
0	988	0.45	3
0	989	0.45	1
0	990	0.45	1
0	1079	0.5	3
0	1080	0.5	5
0	1081	0.5	3
0	1082	0.5	5
0	1083	0.5	8
0	1084	0.5	5
0	1085	0.5	3
0	1086	0.5	5
0	1087	0.5	3
0	1088	0.5	1
0	1089	0.5	1
0	1090	0.5	3
0	1091	0.5	5
0	1092	0.5	3
0	1093	0.5	5
0	1094	0.5	8
0	1095	0.5	5
0	1096	0.5	3
0	1097	0.5	5
0	1098	0.5	3
0	1099	0.5	1
0	1100	0.5	1
0	1211	0.55	3
0	1212	0.55	5
0	1213	0.55	3
0	1214	0.55	5
0	1215	0.55	8
0	1216	0.55	5
0	1217	0.55	3
0	1218	0.55	5
0	1219	0.55	3
0	1220	0.55	1
0	1221	0.55	1
0	1310	0.6	3
0	1311	0.6	5
0	1312	0.6	3
0	1313	0.6	5
0	1314	0.6	8
0	1315	0.6	5
0	1316	0.6	3
0	1317	0.6	5
0	1318	0.6	3
0	1319	0.6	1
0	1320	0.6	1
0	1321	0.6	3
0	1322	0.6	5
0	1323	0.6	3
0	1324	0.6	5
0	1325	0.6	8
0	1326	0.6	5
0	1327	0.6	3
0	1328	0.6	5
0	1329	0.6	3
0	1330	0.6	1
0	1331	0.6	1
0	1442	0.65	3
0	1443	0.65	5
0	1444	0.65	3
0	1445	0.65	5
0	1446	0.65	8
0	1447	0.65	5
0	1448	0.65	3
0	1449	0.65	5
0	1450	0.65	3
0	1451	0.65	1
0	1452	0.65	1
0	1541	0.7	3
0	1542	0.7	5
0	1543	0.7	3
0	1544	0.7	5
0	1545	0.7	8
0	1546	0.7	5
0	1547	0.7	3
0	1548	0.7	5
0	1549	0.7	3
0	1550	0.7	1
0	1551	0.7	1
0	1552	0.7	3
0	1553	0.7	5
0	1554	0.7	3
0	1555	0.7	5
0	1556	0.7	8
0	1557	0.7	5
0	1558	0.7	3
0	1559	0.7	5
0	1560	0.7	3
0	1561	0.7	1
0	1562	0.7	1
0	1673	0.75	3
0	1674	0.75	5
0	1675	0.75	3
0	1676	0.75	5
0	1677	0.75	8
0	1678	0.75	5
0	1679	0.75	3
0	1680	0.75	5
0	1681	0.75	3
0	1682	0.75	1
0	1683	0.75	1
0	1772	0.8	3
0	1773	0.8	5
0	1774	0.8	3
0	1775	0.8	5
0	1776	0.8	8
0	1777	0.8	5
0	1778	0.8	3
0	1779	0.8	5
0	1780	0.8	3
0	1781	0.8	1
0	1782	0.8	1
0	1783	0.8	3
0	1784	0.8	5
0	1785	0.8	3
0	1786	0.8	5
0	1787	0.8	8
0	1788	0.8	5
0	1789	0.8	3
0	1790	0.8	5
0	1791	0.8	3
0	1792	0.8	1
0	1793	0.8	1
0	1904	0.85	3
0	1905	0.85	5
0	1906	0.85	3
0	1907	0.85	5
0	1908	0.85	8
0	1909	0.85	5
0	1910	0.85	3
0	1911	0.85	5
0	1912	0.85	3
0	1913	0.85	1
0	1914	0.85	1
0	2003	0.9	3
0	2004	0.9	5
0	2005	0.9	3
0	2006	0.9	5
0	2007	0.9	8
0	2008	0.9	5
0	2009	0.9	3
0	2010	0.9	5
0	2011	0.9	3
0	2012	0.9	1
0	2013	0.9	1
0	2014	0.9	3
0	2015	0.9	5
0	2016	0.9	3
0	2017	0.9	5
0	2018	0.9	8
0	2019	0.9	5
0	2020	0.9	3
0	2021	0.9	5
0	2022	0.9	3
0	2023	0.9	1
0	2024	0.9	1
0	2135	0.95	3
0	2136	0.95	5
0	2137	0.95	3
0	2138	0.95	5
0	2139	0.95	8
0	2140	0.95	5
0	2141	0.95	3
0	2142	0.95	5
0	2143	0.95	3
0	2144	0.95	1
0	2145	0.95	1
0	2234	1	3
0	2235	1	5
0	2236	1	3
0	2237	1	5
0	2238	1	8
0	2239	1	5
0	2240	1	3
0	2241	1	5
0	2242	1	3
0	2243	1	1
0	2244	1	1
0	2245	1	3
0	2246	1	5
0	2247	1	3
0	2248	1	5
0	2249	1	8
0	2250	1	5
0	2251	1	3
0	2252	1	5
0	2253	1	3
0	2254	1	1
0	2255	1	1
0	2366	1.05	3
0	2367	1.05	5
0	2368	1.05	3
0	2369	1.05	5
0	2370	1.05	8
0	2371	1.05	5
0	2372	1.05	3
0	2373	1.05	5
0	2374	1.05	3
0	2375	1.05	1
0	2376	1.05	1
0	2476	1.1	3
0	2477	1.1	5
0	2478	1.1	3
0	2479	1.1	5
0	2480	1.1	8
0	2481	1.1	5
0	2482	1.1	3
0	2483	1.1	5
0	2484	1.1	3
0	2485	1.1	1
0	2486	1.1	1
0	2487	1.1	3
0	2488	1.1	5
0	2489	1.1	3
0	2490	1.1	5
0	2491	1.1	8
0	2492	1.1	5
0	2493	1.1	3
0	2494	1.1	5
0	2495	1.1	3
0	2496	1.1	1
0	2497	1.1	1
0	3069	1.15	3
0	3070	1.15	5
0	3071	1.15	3
0	3072	1.15	5
0	3073	1.15	8
0	3074	1.15	5
0	3075	1.15	3
0	3076	1.15	5
0	3077	1.15	3
0	3078	1.15	1
0	3079	1.15	1
0	3486	1.2	3
0	3487	1.2	5
0	3488	1.2	3
0	3489	1.2	5
0	3490	1.2	8
0	3491	1.2	5
0	3492	1.2	3
0	3493	1.2	5
0	3494	1.2	3
0	3495	1.2	1
0	3496	1.2	1
0	3497	1.2	3
0	3498	1.2	5
0	3499	1.2	3
0	3500	1.2	5
0	3501	1.2	8
0	3502	1.2	5
0	3503	1.2	3
0	3504	1.2	5
0	3505	1.2	3
0	3506	1.2	1
0	3507	1.2	1
0	3702	1.25	3
0	3703	1.25	5
0	3704	1.25	3
0	3705	1.25	5
0	3706	1.25	8
0	3707	1.25	5
0	3708	1.25	3
0	3709	1.25	5
0	3710	1.25	3
0	3711	1.25	1
0	3712	1.25	1
0	3819	1.3	3
0	3820	1.3	5
0	3821	1.3	3
0	3822	1.3	5
0	3823	1.3	8
0	3824	1.3	5
0	3825	1.3	3
0	3826	1.3	5
0	3827	1.3	3
0	3828	1.3	1
0	3829	1.3	1
0	3830	1.3	3
0	3831	1.3	5
0	3832	1.3	3
0	3833	1.3	5
0	3834	1.3	8
0	3835	1.3	5
0	3836	1.3	3
0	3837	1.3	5
0	3838	1.3	3
0	3839	1.3	1
0	3840	1.3	1
0	3951	1.35	3
0	3952	1.35	5
0	3953	1.35	3
0	3954	1.35	5
0	3955	1.35	8
0	3956	1.35	5
0	3957	1.35	3
0	3958	1.35	5
0	3959	1.35	3
0	3960	1.35	1
0	3961	1.35	1
0	4050	1.4	3
0	4051	1.4	5
0	4052	1.4	3
0	4053	1.4	5
0	4054	1.4	8
0	4055	1.4	5
0	4056	1.4	3
0	4057	1.4	5
0	4058	1.4	3
0	4059	1.4	1
0	4060	1.4	1
0	4061	1.4	3
0	4062	1.4	5
0	4063	1.4	3
0	4064	1.4	5
0	4065	1.4	8
0	4066	1.4	5
0	4067	1.4	3
0	4068	1.4	5
0	4069	1.4	3
0	4070	1.4	1
0	4071	1.4	1
0	4182	1.45	3
0	4183	1.45	5
0	4184	1.45	3
0	4185	1.45	5
0	4186	1.45	8
0	4187	1.45	5
0	4188	1.45	3
0	4189	1.45	5
0	4190	1.45	3
0	4191	1.45	1
0	4192	1.45	1
0	4281	1.5	3
0	4282	1.5	5
0	4283	1.5	3
0	4284	1.5	5
0	4285	1.5	8
0	4286	1.5	5
0	4287	1.5	3
0	4288	1.5	5
0	4289	1.5	3
0	4290	1.5	1
0	4291	1.5	1
0	4292	1.5	3
0	4293	1.5	5
0	4294	1.5	3
0	4295	1.5	5
0	4296	1.5	8
0	4297	1.5	5
0	4298	1.5	3
0	4299	1.5	5
0	4300	1.5	3
0	4301	1.5	1
0	4302	1.5	1
0	4413	1.55	3
0	4414	1.55	5
0	4415	1.55	3
0	4416	1.55	5
0	4417	1.55	8
0	4418	1.55	5
0	4419	1.55	3
0	4420	1.55	5
0	4421	1.55	3
0	4422	1.55	1
0	4423	1.55	1
0	4512	1.6	3
0	4513	1.6	5
0	4514	1.6	3
0	4515	1.6	5
0	4516	1.6	8
0	4517	1.6	5
0	4518	1.6	3
0	4519	1.6	5
0	4520	1.6	3
0	4521	1.6	1
0	4522	1.6	1
0	4523	1.6	3
0	4524	1.6	5
0	4525	1.6	3
0	4526	1.6	5
0	4527	1.6	8
0	4528	1.6	5
0	4529	1.6	3
0	4530	1.6	5
0	4531	1.6	3
0	4532	1.6	1
0	4533	1.6	1
0	4644	1.65	3
0	4645	1.65	5
0	4646	1.65	3
0	4647	1.65	5
0	4648	1.65	8
0	4649	1.65	5
0	4650	1.65	3
0	4651	1.65	5
0	4652	1.65	3
0	4653	1.65	1
0	4654	1.65	1
0	5161	1.7	3
0	5162	1.7	5
0	5163	1.7	3
0	5164	1.7	5
0	5165	1.7	8
0	5166	1.7	5
0	5167	1.7	3
0	5168	1.7	5
0	5169	1.7	3
0	5170	1.7	1
0	5171	1.7	1
0	5172	1.7	3
0	5173	1.7	5
0	5174	1.7	3
0	5175	1.7	5
0	5176	1.7	8
0	5177	1.7	5
0	5178	1.7	3
0	5179	1.7	5
0	5180	1.7	3
0	5181	1.7	1
0	5182	1.7	1
0	5551	1.75	3
0	5552	1.75	5
0	5553	1.75	3
0	5554	1.75	5
0	5555	1.75	8
0	5556	1.75	5
0	5557	1.75	3
0	5558	1.75	5
0	5559	1.75	3
0	5560	1.75	1
0	5561	1.75	1
0	5746	1.8	3
0	5747	1.8	5
0	5748	1.8	3
0	5749	1.8	5
0	5750	1.8	8
0	5751	1.8	5
0	5752	1.8	3
0	5753	1.8	5
0	5754	1.8	3
0	5755	1.8	1
0	5756	1.8	1
0	5757	1.8	3
0	5758	1.8	5
0	5759	1.8	3
0	5760	1.8	5
0	5761	1.8	8
0	5762	1.8	5
0	5763	1.8	3
0	5764	1.8	5
0	5765	1.8	3
0	5766	1.8	1
0	5767	1.8	1
0	5878	1.85	3
0	5879	1.85	5
0	5880	1.85	3
0	5881	1.85	5
0	5882	1.85	8
0	5883	1.85	5
0	5884	1.85	3
0	5885	1.85	5
0	5886	1.85	3
0	5887	1.85	1
0	5888	1.85	1
0	5982	1.9	3
0	5983	1.9	5
0	5984	1.9	3
0	5985	1.9	5
0	5986	1.9	8
0	5987	1.9	5
0	5988	1.9	3
0	5989	1.9	5
0	5990	1.9	3
0	5991	1.9	1
0	5992	1.9	1
0	5993	1.9	3
0	5994	1.9	5
0	5995	1.9	3
0	5996	1.9	5
0	5997	1.9	8
0	5998	1.9	5
0	5999	1.9	3
0	6000	1.9	5
0	6001	1.9	3
0	6002	1.9	1
0	6003	1.9	1
0	6114	1.95	3
0	6115	1.95	5
0	6116	1.95	3
0	6117	1.95	5
0	6118	1.95	8
0	6119	1.95	5
0	6120	1.95	3
0	6121	1.95	5
0	6122	1.95	3
0	6123	1.95	1
0	6124	1.95	1
0	6213	2	3
0	6214	2	5
0	6215	2	3
0	6216	2	5
0	6217	2	8
0	6218	2	5
0	6219	2	3
0	6220	2	5
0	6221	2	3
0	6222	2	1
0	6223	2	1
0	6224	2	3
0	6225	2	5
0	6226	2	3
0	6227	2	5
0	6228	2	8
0	6229	2	5
0	6230	2	3
0	6231	2	5
0	6232	2	3
0	6233	2	1
0	6234	2	1
0	6345	2.05	3
0	6346	2.05	5
0	6347	2.05	3
0	6348	2.05	5
0	6349	2.05	8
0	6350	2.05	5
0	6351	2.05	3
0	6352	2.05	5
0	6353	2.05	3
0	6354	2.05	1
0	6355	2.05	1
0	6455	2.1	3
0	6456	2.1	5
0	6457	2.1	3
0	6458	2.1	5
0	6459	2.1	8
0	6460	2.1	5
0	6461	2.1	3
0	6462	2.1	5
0	6463	2.1	3
0	6464	2.1	1
0	6465	2.1	1
0	6466	2.1	3
0	6467	2.1	5
0	6468	2.1	3
0	6469	2.1	5
0	6470	2.1	8
0	6471	2.1	5
0	6472	2.1	3
0	6473	2.1	5
0	6474	2.1	3
0	6475	2.1	1
0	6476	2.1	1
0	6598	2.15	3
0	6599	2.15	5
0	6600	2.15	3
0	6601	2.15	5
0	6602	2.15	8
0	6603	2.15	5
0	6604	2.15	3
0	6605	2.15	5
0	6606	2.15	3
0	6607	2.15	1
0	6608	2.15	1
0	6697	2.2	3
0	6698	2.2	5
0	6699	2.2	3
0	6700	2.2	5
0	6701	2.2	8
0	6702	2.2	5
0	6703	2.2	3
0	6704	2.2	5
0	6705	2.2	3
0	6706	2.2	1
0	6707	2.2	1
0	6708	2.2	3
0	6709	2.2	5
0	6710	2.2	3
0	6711	2.2	5
0	6712	2.2	8
0	6713	2.2	5
0	6714	2.2	3
0	6715	2.2	5
0	6716	2.2	3
0	6717	2.2	1
0	6718	2.2	1
0	7264	2.25	3
0	7265	2.25	5
0	7266	2.25	3
0	7267	2.25	5
0	7268	2.25	8
0	7269	2.25	5
0	7270	2.25	3
0	7271	2.25	5
0	7272	2.25	3
0	7273	2.25	1
0	7274	2.25	1
0	7594	2.3	3
0	7595	2.3	5
0	7596	2.3	3
0	7597	2.3	5
0	7598	2.3	8
0	7599	2.3	5
0	7600	2.3	3
0	7601	2.3	5
0	7602	2.3	3
0	7603	2.3	1
0	7604	2.3	1
0	7605	2.3	3
0	7606	2.3	5
0	7607	2.3	3
0	7608	2.3	5
0	7609	2.3	8
0	7610	2.3	5
0	7611	2.3	3
0	7612	2.3	5
0	7613	2.3	3
0	7614	2.3	1
0	7615	2.3	1
0	7747	2.35	3
0	7748	2.35	5
0	7749	2.35	3
0	7750	2.35	5
0	7751	2.35	8
0	7752	2.35	5
0	7753	2.35	3
0	7754	2.35	5
0	7755	2.35	3
0	7756	2.35	1
0	7757	2.35	1
0	7903	2.4	3
0	7904	2.4	5
0	7905	2.4	3
0	7906	2.4	5
0	7907	2.4	8
0	7908	2.4	5
0	7909	2.4	3
0	7910	2.4	5
0	7911	2.4	3
0	7912	2.4	1
0	7913	2.4	1
0	7914	2.4	3
0	7915	2.4	5
0	7916	2.4	3
0	7917	2.4	5
0	7918	2.4	8
0	7919	2.4	5
0	7920	2.4	3
0	7921	2.4	5
0	7922	2.4	3
0	7923	2.4	1
0	7924	2.4	1
0	8035	2.45	3
0	8036	2.45	5
0	8037	2.45	3
0	8038	2.45	5
0	8039	2.45	8
0	8040	2.45	5
0	8041	2.45	3
0	8042	2.45	5
0	8043	2.45	3
0	8044	2.45	1
0	8045	2.45	1
0	8134	2.5	3
0	8135	2.5	5
0	8136	2.5	3
0	8137	2.5	5
0	8138	2.5	8
0	8139	2.5	5
0	8140	2.5	3
0	8141	2.5	5
0	8142	2.5	3
0	8143	2.5	1
0	8144	2.5	1
0	8145	2.5	3
0	8146	2.5	5
0	8147	2.5	3
0	8148	2.5	5
0	8149	2.5	8
0	8150	2.5	5
0	8151	2.5	3
0	8152	2.5	5
0	8153	2.5	3
0	8154	2.5	1
0	8155	2.5	1
0	8266	2.55	3
0	8267	2.55	5
0	8268	2.55	3
0	8269	2.55	5
0	8270	2.55	8
0	8271	2.55	5
0	8272	2.55	3
0	8273	2.55	5
0	8274	2.55	3
0	8275	2.55	1
0	8276	2.55	1
0	8365	2.6	3
0	8366	2.6	5
0	8367	2.6	3
0	8368	2.6	5
0	8369	2.6	8
0	8370	2.6	5
0	8371	2.6	3
0	8372	2.6	5
0	8373	2.6	3
0	8374	2.6	1
0	8375	2.6	1
0	8376	2.6	3
0	8377	2.6	5
0	8378	2.6	3
0	8379	2.6	5
0	8380	2.6	8
0	8381	2.6	5
0	8382	2.6	3
0	8383	2.6	5
0	8384	2.6	3
0	8385	2.6	1
0	8386	2.6	1
0	8497	2.65	3
0	8498	2.65	5
0	8499	2.65	3
0	8500	2.65	5
0	8501	2.65	8
0	8502	2.65	5
0	8503	2.65	3
0	8504	2.65	5
0	8505	2.65	3
0	8506	2.65	1
0	8507	2.65	1
0	8596	2.7	3
0	8597	2.7	5
0	8598	2.7	3
0	8599	2.7	5
0	8600	2.7	8
0	8601	2.7	5
0	8602	2.7	3
0	8603	2.7	5
0	8604	2.7	3
0	8605	2.7	1
0	8606	2.7	1
0	8607	2.7	3
0	8608	2.7	5
0	8609	2.7	3
0	8610	2.7	5
0	8611	2.7	8
0	8612	2.7	5
0	8613	2.7	3
0	8614	2.7	5
0	8615	2.7	3
0	8616	2.7	1
0	8617	2.7	1
0	8791	2.75	3
0	8792	2.75	5
0	8793	2.75	3
0	8794	2.75	5
0	8795	2.75	8
0	8796	2.75	5
0	8797	2.75	3
0	8798	2.75	5
0	8799	2.75	3
0	8800	2.75	1
0	8801	2.75	1
0	9307	2.8	3
0	9308	2.8	5
0	9309	2.8	3
0	9310	2.8	5
0	9311	2.8	8
0	9312	2.8	5
0	9313	2.8	3
0	9314	2.8	5
0	9315	2.8	3
0	9316	2.8	1
0	9317	2.8	1
0	9318	2.8	3
0	9319	2.8	5
0	9320	2.8	3
0	9321	2.8	5
0	9322	2.8	8
0	9323	2.8	5
0	9324	2.8	3
0	9325	2.8	5
0	9326	2.8	3
0	9327	2.8	1
0	9328	2.8	1
0	9664	2.85	3
0	9665	2.85	5
0	9666	2.85	3
0	9667	2.85	5
0	9668	2.85	8
0	9669	2.85	5
0	9670	2.85	3
0	9671	2.85	5
0	9672	2.85	3
0	9673	2.85	1
0	9674	2.85	1
0	9768	2.9	3
0	9769	2.9	5
0	9770	2.9	3
0	9771	2.9	5
0	9772	2.9	8
0	9773	2.9	5
0	9774	2.9	3
0	9775	2.9	5
0	9776	2.9	3
0	9777	2.9	1
0	9778	2.9	1
0	9779	2.9	3
0	9780	2.9	5
0	9781	2.9	3
0	9782	2.9	5
0	9783	2.9	8
0	9784	2.9	5
0	9785	2.9	3
0	9786	2.9	5
0	9787	2.9	3
0	9788	2.9	1
0	9789	2.9	1
0	9938	2.95	3
0	9939	2.95	5
0	9940	2.95	3
0	9941	2.95	5
0	9942	2.95	8
0	9943	2.95	5
0	9944	2.95	3
0	9945	2.95	5
0	9946	2.95	3
0	9947	2.95	1
0	9948	2.95	1
0	10037	3	3
0	10038	3	5
0	10039	3	3
0	10040	3	5
0	10041	3	8
0	10042	3	5
0	10043	3	3
0	10044	3	5
0	10045	3	3
0	10046	3	1
0	10047	3	1
0	10048	3	3
0	10049	3	5
0	10050	3	3
0	10051	3	5
0	10052	3	8
0	10053	3	5
0	10054	3	3
0	10055	3	5
0	10056	3	3
0	10057	3	1
0	10058	3	1
0	10169	3.05	3
0	10170	3.05	5
0	10171	3.05	3
0	10172	3.05	5
0	10173	3.05	8
0	10174	3.05	5
0	10175	3.05	3
0	10176	3.05	5
0	10177	3.05	3
0	10178	3.05	1
0	10179	3.05	1
0	10279	3.1	3
0	10280	3.1	5
0	10281	3.1	3
0	10282	3.1	5
0	10283	3.1	8
0	10284	3.1	5
0	10285	3.1	3
0	10286	3.1	5
0	10287	3.1	3
0	10288	3.1	1
0	10289	3.1	1
0	10290	3.1	3
0	10291	3.1	5
0	10292	3.1	3
0	10293	3.1	5
0	10294	3.1	8
0	10295	3.1	5
0	10296	3.1	3
0	10297	3.1	5
0	10298	3.1	3
0	10299	3.1	1
0	10300	3.1	1
0	10422	3.15	3
0	10423	3.15	5
0	10424	3.15	3
0	10425	3.15	5
0	10426	3.15	8
0	10427	3.15	5
0	10428	3.15	3
0	10429	3.15	5
0	10430	3.15	3
0	10431	3.15	1
0	10432	3.15	1
0	10521	3.2	3
0	10522	3.2	5
0	10523	3.2	3
0	10524	3.2	5
0	10525	3.2	8
0	10526	3.2	5
0	10527	3.2	3
0	10528	3.2	5
0	10529	3.2	3
0	10530	3.2	1
0	10531	3.2	1
0	10532	3.2	3
0	10533	3.2	5
0	10534	3.2	3
0	10535	3.2	5
0	10536	3.2	8
0	10537	3.2	5
0	10538	3.2	3
0	10539	3.2	5
0	10540	3.2	3
0	10541	3.2	1
0	10542	3.2	1
0	10653	3.25	3
0	10654	3.25	5
0	10655	3.25	3
0	10656	3.25	5
0	10657	3.25	8
0	10658	3.25	5
0	10659	3.25	3
0	10660	3.25	5
0	10661	3.25	3
0	10662	3.25	1
0	10663	3.25	1
0	10797	3.3	3
0	10798	3.3	5
0	10799	3.3	3
0	10800	3.3	5
0	10801	3.3	8
0	10802	3.3	5
0	10803	3.3	3
0	10804	3.3	5
0	10805	3.3	3
0	10806	3.3	1
0	10807	3.3	1
0	10808	3.3	3
0	10809	3.3	5
0	10810	3.3	3
0	10811	3.3	5
0	10812	3.3	8
0	10813	3.3	5
0	10814	3.3	3
0	10815	3.3	5
0	10816	3.3	3
0	10817	3.3	1
0	10818	3.3	1
0	11384	3.35	3
0	11385	3.35	5
0	11386	3.35	3
0	11387	3.35	5
0	11388	3.35	8
0	11389	3.35	5
0	11390	3.35	3
0	11391	3.35	5
0	11392	3.35	3
0	11393	3.35	1
0	11394	3.35	1
0	11591	3.4	3
0	11592	3.4	5
0	11593	3.4	3
0	11594	3.4	5
0	11595	3.4	8
0	11596	3.4	5
0	11597	3.4	3
0	11598	3.4	5
0	11599	3.4	3
0	11600	3.4	1
0	11601	3.4	1
0	11602	3.4	3
0	11603	3.4	5
0	11604	3.4	3
0	11605	3.4	5
0	11606	3.4	8
0	11607	3.4	5
0	11608	3.4	3
0	11609	3.4	5
0	11610	3.4	3
0	11611	3.4	1
0	11612	3.4	1
0	11746	3.45	3
0	11747	3.45	5
0	11748	3.45	3
0	11749	3.45	5
0	11750	3.45	8
0	11751	3.45	5
0	11752	3.45	3
0	11753	3.45	5
0	11754	3.45	3
0	11755	3.45	1
0	11756	3.45	1
0	11914	3.5	3
0	11915	3.5	5
0	11916	3.5	3
0	11917	3.5	5
0	11918	3.5	8
0	11919	3.5	5
0	11920	3.5	3
0	11921	3.5	5
0	11922	3.5	3
0	11923	3.5	1
0	11924	3.5	1
0	11925	3.5	3
0	11926	3.5	5
0	11927	3.5	3
0	11928	3.5	5
0	11929	3.5	8
0	11930	3.5	5
0	11931	3.5	3
0	11932	3.5	5
0	11933	3.5	3
0	11934	3.5	1
0	11935	3.5	1
0	12046	3.55	3
0	12047	3.55	5
0	12048	3.55	3
0	12049	3.55	5
0	12050	3.55	8
0	12051	3.55	5
0	12052	3.55	3
0	12053	3.55	5
0	12054	3.55	3
0	12055	3.55	1
0	12056	3.55	1
0	12145	3.6	3
0	12146	3.6	5
0	12147	3.6	3
0	12148	3.6	5
0	12149	3.6	8
0	12150	3.6	5
0	12151	3.6	3
0	12152	3.6	5
0	12153	3.6	3
0	12154	3.6	1
0	12155	3.6	1
0	12156	3.6	3
0	12157	3.6	5
0	12158	3.6	3
0	12159	3.6	5
0	12160	3.6	8
0	12161	3.6	5
0	12162	3.6	3
0	12163	3.6	5
0	12164	3.6	3
0	12165	3.6	1
0	12166	3.6	1
0	12277	3.65	3
0	12278	3.65	5
0	12279	3.65	3
0	12280	3.65	5
0	12281	3.65	8
0	12282	3.65	5
0	12283	3.65	3
0	12284	3.65	5
0	12285	3.65	3
0	12286	3.65	1
0	12287	3.65	1
0	12376	3.7	3
0	12377	3.7	5
0	12378	3.7	3
0	12379	3.7	5
0	12380	3.7	8
0	12381	3.7	5
0	12382	3.7	3
0	12383	3.7	5
0	12384	3.7	3
0	12385	3.7	1
0	12386	3.7	1
0	12387	3.7	3
0	12388	3.7	5
0	12389	3.7	3
0	12390	3.7	5
0	12391	3.7	8
0	12392	3.7	5
0	12393	3.7	3
0	12394	3.7	5
0	12395	3.7	3
0	12396	3.7	1
0	12397	3.7	1
0	12508	3.75	3
0	12509	3.75	5
0	12510	3.75	3
0	12511	3.75	5
0	12512	3.75	8
0	12513	3.75	5
0	12514	3.75	3
0	12515	3.75	5
0	12516	3.75	3
0	12517	3.75	1
0	12518	3.75	1
0	12607	3.8	3
0	12608	3.8	5
0	12609	3.8	3
0	12610	3.8	5
0	12611	3.8	8
0	12612	3.8	5
0	12613	3.8	3
0	12614	3.8	5
0	12615	3.8	3
0	12616	3.8	1
0	12617	3.8	1
0	12618	3.8	3
0	12619	3.8	5
0	12620	3.8	3
0	12621	3.8	5
0	12622	3.8	8
0	12623	3.8	5
0	12624	3.8	3
0	12625	3.8	5
0	12626	3.8	3
0	12627	3.8	1
0	12628	3.8	1
0	12789	3.85	3
0	12790	3.85	5
0	12791	3.85	3
0	12792	3.85	5
0	12793	3.85	8
0	12794	3.85	5
0	12795	3.85	3
0	12796	3.85	5
0	12797	3.85	3
0	12798	3.85	1
0	12799	3.85	1
0	13340	3.9	3
0	13341	3.9	5
0	13342	3.9	3
0	13343	3.9	5
0	13344	3.9	8
0	13345	3.9	5
0	13346	3.9	3
0	13347	3.9	5
0	13348	3.9	3
0	13349	3.9	1
0	13350	3.9	1
0	13351	3.9	3
0	13352	3.9	5
0	13353	3.9	3
0	13354	3.9	5
0	13355	3.9	8
0	13356	3.9	5
0	13357	3.9	3
0	13358	3.9	5
0	13359	3.9	3
0	13360	3.9	1
0	13361	3.9	1
0	13571	3.95	3
0	13572	3.95	5
0	13573	3.95	3
0	13574	3.95	5
0	13575	3.95	8
0	13576	3.95	5
0	13577	3.95	3
0	13578	3.95	5
0	13579	3.95	3
0	13580	3.95	1
0	13581	3.95	1
0	13693	4	3
0	13694	4	5
0	13695	4	3
0	13696	4	5
0	13697	4	8
0	13698	4	5
0	13699	4	3
0	13700	4	5
0	13701	4	3
0	13702	4	1
0	13703	4	1
0	13704	4	3
0	13705	4	5
0	13706	4	3
0	13707	4	5
0	13708	4	8
0	13709	4	5
0	13710	4	3
0	13711	4	5
0	13712	4	3
0	13713	4	1
0	13714	4	1
0	13876	4.05	3
0	13877	4.05	5
0	13878	4.05	3
0	13879	4.05	5
0	13880	4.05	8
0	13881	4.05	5
0	13882	4.05	3
0	13883	4.05	5
0	13884	4.05	3
0	13885	4.05	1
0	13886	4.05	1
0	13986	4.1	3
0	13987	4.1	5
0	13988	4.1	3
0	13989	4.1	5
0	13990	4.1	8
0	13991	4.1	5
0	13992	4.1	3
0	13993	4.1	5
0	13994	4.1	3
0	13995	4.1	1
0	13996	4.1	1
0	13997	4.1	3
0	13998	4.1	5
0	13999	4.1	3
0	14000	4.1	5
0	14001	4.1	8
0	14002	4.1	5
0	14003	4.1	3
0	14004	4.1	5
0	14005	4.1	3
0	14006	4.1	1
0	14007	4.1	1
0	14129	4.15	3
0	14130	4.15	5
0	14131	4.15	3
0	14132	4.15	5
0	14133	4.15	8
0	14134	4.15	5
0	14135	4.15	3
0	14136	4.15	5
0	14137	4.15	3
0	14138	4.15	1
0	14139	4.15	1
0	14228	4.2	3
0	14229	4.2	5
0	14230	4.2	3
0	14231	4.2	5
0	14232	4.2	8
0	14233	4.2	5
0	14234	4.2	3
0	14235	4.2	5
0	14236	4.2	3
0	14237	4.2	1
0	14238	4.2	1
0	14239	4.2	3
0	14240	4.2	5
0	14241	4.2	3
0	14242	4.2	5
0	14243	4.2	8
0	14244	4.2	5
0	14245	4.2	3
0	14246	4.2	5
0	14247	4.2	3
0	14248	4.2	1
0	14249	4.2	1
0	14360	4.25	3
0	14361	4.25	5
0	14362	4.25	3
0	14363	4.25	5
0	14364	4.25	8
0	14365	4.25	5
0	14366	4.25	3
0	14367	4.25	5
0	14368	4.25	3
0	14369	4.25	1
0	14370	4.25	1
0	14459	4.3	3
0	14460	4.3	5
0	14461	4.3	3
0	14462	4.3	5
0	14463	4.3	8
0	14464	4.3	5
0	14465	4.3	3
0	14466	4.3	5
0	14467	4.3	3
0	14468	4.3	1
0	14469	4.3	1
0	14470	4.3	3
0	14471	4.3	5
0	14472	4.3	3
0	14473	4.3	5
0	14474	4.3	8
0	14475	4.3	5
0	14476	4.3	3
0	14477	4.3	5
0	14478	4.3	3
0	14479	4.3	1
0	14480	4.3	1
0	14614	4.35	3
0	14615	4.35	5
0	14616	4.35	3
0	14617	4.35	5
0	14618	4.35	8
0	14619	4.35	5
0	14620	4.35	3
0	14621	4.35	5
0	14622	4.35	3
0	14623	4.35	1
0	14624	4.35	1
0	14798	4.4	3
0	14799	4.4	5
0	14800	4.4	3
0	14801	4.4	5
0	14802	4.4	8
0	14803	4.4	5
0	14804	4.4	3
0	14805	4.4	5
0	14806	4.4	3
0	14807	4.4	1
0	14808	4.4	1
0	14809	4.4	3
0	14810	4.4	5
0	14811	4.4	3
0	14812	4.4	5
0	14813	4.4	8
0	14814	4.4	5
0	14815	4.4	3
0	14816	4.4	5
0	14817	4.4	3
0	14818	4.4	1
0	14819	4.4	1
0	15336	4.45	3
0	15337	4.45	5
0	15338	4.45	3
0	15339	4.45	5
0	15340	4.45	8
0	15341	4.45	5
0	15342	4.45	3
0	15343	4.45	5
0	15344	4.45	3
0	15345	4.45	1
0	15346	4.45	1
0	15538	4.5	3
0	15539	4.5	5
0	15540	4.5	3
0	15541	4.5	5
0	15542	4.5	8
0	15543	4.5	5
0	15544	4.5	3
0	15545	4.5	5
0	15546	4.5	3
0	15547	4.5	1
0	15548	4.5	1
0	15549	4.5	3
0	15550	4.5	5
0	15551	4.5	3
0	15552	4.5	5
0	15553	4.5	8
0	15554	4.5	5
0	15555	4.5	3
0	15556	4.5	5
0	15557	4.5	3
0	15558	4.5	1
0	15559	4.5	1
0	15762	4.55	3
0	15763	4.55	5
0	15764	4.55	3
0	15765	4.55	5
0	15766	4.55	8
0	15767	4.55	5
0	15768	4.55	3
0	15769	4.55	5
0	15770	4.55	3
0	15771	4.55	1
0	15772	4.55	1
0	15912	4.6	3
0	15913	4.6	5
0	15914	4.6	3
0	15915	4.6	5
0	15916	4.6	8
0	15917	4.6	5
0	15918	4.6	3
0	15919	4.6	5
0	15920	4.6	3
0	15921	4.6	1
0	15922	4.6	1
0	15923	4.6	3
0	15924	4.6	5
0	15925	4.6	3
0	15926	4.6	5
0	15927	4.6	8
0	15928	4.6	5
0	15929	4.6	3
0	15930	4.6	5
0	15931	4.6	3
0	15932	4.6	1
0	15933	4.6	1
0	16044	4.65	3
0	16045	4.65	5
0	16046	4.65	3
0	16047	4.65	5
0	16048	4.65	8
0	16049	4.65	5
0	16050	4.65	3
0	16051	4.65	5
0	16052	4.65	3
0	16053	4.65	1
0	16054	4.65	1
0	16143	4.7	3
0	16144	4.7	5
0	16145	4.7	3
0	16146	4.7	5
0	16147	4.7	8
0	16148	4.7	5
0	16149	4.7	3
0	16150	4.7	5
0	16151	4.7	3
0	16152	4.7	1
0	16153	4.7	1
0	16154	4.7	3
0	16155	4.7	5
0	16156	4.7	3
0	16157	4.7	5
0	16158	4.7	8
0	16159	4.7	5
0	16160	4.7	3
0	16161	4.7	5
0	16162	4.7	3
0	16163	4.7	1
0	16164	4.7	1
0	16275	4.75	3
0	16276	4.75	5
0	16277	4.75	3
0	16278	4.75	5
0	16279	4.75	8
0	16280	4.75	5
0	16281	4.75	3
0	16282	4.75	5
0	16283	4.75	3
0	16284	4.75	1
0	16285	4.75	1
0	16374	4.8	3
0	16375	4.8	5
0	16376	4.8	3
0	16377	4.8	5
0	16378	4.8	8
0	16379	4.8	5
0	16380	4.8	3
0	16381	4.8	5
0	16382	4.8	3
0	16383	4.8	1
0	16384	4.8	1
0	16385	4.8	3
0	16386	4.8	5
0	16387	4.8	3
0	16388	4.8	5
0	16389	4.8	8
0	16390	4.8	5
0	16391	4.8	3
0	16392	4.8	5
0	16393	4.8	3
0	16394	4.8	1
0	16395	4.8	1
0	16506	4.85	3
0	16507	4.85	5
0	16508	4.85	3
0	16509	4.85	5
0	16510	4.85	8
0	16511	4.85	5
0	16512	4.85	3
0	16513	4.85	5
0	16514	4.85	3
0	16515	4.85	1
0	16516	4.85	1
0	16615	4.9	3
0	16616	4.9	5
0	16617	4.9	3
0	16618	4.9	5
0	16619	4.9	8
0	16620	4.9	5
0	16621	4.9	3
0	16622	4.9	5
0	16623	4.9	3
0	16624	4.9	1
0	16625	4.9	1
0	16626	4.9	3
0	16627	4.9	5
0	16628	4.9	3
0	16629	4.9	5
0	16630	4.9	8
0	16631	4.9	5
0	16632	4.9	3
0	16633	4.9	5
0	16634	4.9	3
0	16635	4.9	1
0	16636	4.9	1
0	16833	4.95	3
0	16834	4.95	5
0	16835	4.95	3
0	16836	4.95	5
0	16837	4.95	8
0	16838	4.95	5
0	16839	4.95	3
0	16840	4.95	5
0	16841	4.95	3
0	16842	4.95	1
0	16843	4.95	1
0	17355	5	3
0	17356	5	5
0	17357	5	3
0	17358	5	5
0	17359	5	8
0	17360	5	5
0	17361	5	3
0	17362	5	5
0	17363	5	3
0	17364	5	1
0	17365	5	1
0	17366	5	3
0	17367	5	5
0	17368	5	3
0	17369	5	5
0	17370	5	8
0	17371	5	5
0	17372	5	3
0	17373	5	5
0	17374	5	3
0	17375	5	1
0	17376	5	1
0	17529	5.05	3
0	17530	5.05	5
0	17531	5.05	3
0	17532	5.05	5
0	17533	5.05	8
0	17534	5.05	5
0	17535	5.05	3
0	17536	5.05	5
0	17537	5.05	3
0	17538	5.05	1
0	17539	5.05	1
0	17731	5.1	3
0	17732	5.1	5
0	17733	5.1	3
0	17734	5.1	5
0	17735	5.1	8
0	17736	5.1	5
0	17737	5.1	3
0	17738	5.1	5
0	17739	5.1	3
0	17740	5.1	1
0	17741	5.1	1
0	17742	5.1	3
0	17743	5.1	5
0	17744	5.1	3
0	17745	5.1	5
0	17746	5.1	8
0	17747	5.1	5
0	17748	5.1	3
0	17749	5.1	5
0	17750	5.1	3
0	17751	5.1	1
0	17752	5.1	1
0	17966	5.15	3
0	17967	5.15	5
0	17968	5.15	3
0	17969	5.15	5
0	17970	5.15	8
0	17971	5.15	5
0	17972	5.15	3
0	17973	5.15	5
0	17974	5.15	3
0	17975	5.15	1
0	17976	5.15	1
0	18065	5.2	3
0	18066	5.2	5
0	18067	5.2	3
0	18068	5.2	5
0	18069	5.2	8
0	18070	5.2	5
0	18071	5.2	3
0	18072	5.2	5
0	18073	5.2	3
0	18074	5.2	1
0	18075	5.2	1
0	18076	5.2	3
0	18077	5.2	5
0	18078	5.2	3
0	18079	5.2	5
0	18080	5.2	8
0	18081	5.2	5
0	18082	5.2	3
0	18083	5.2	5
0	18084	5.2	3
0	18085	5.2	1
0	18086	5.2	1
0	18197	5.25	3
0	18198	5.25	5
0	18199	5.25	3
0	18200	5.25	5
0	18201	5.25	8
0	18202	5.25	5
0	18203	5.25	3
0	18204	5.25	5
0	18205	5.25	3
0	18206	5.25	1
0	18207	5.25	1
0	18296	5.3	3
0	18297	5.3	5
0	18298	5.3	3
0	18299	5.3	5
0	18300	5.3	8
0	18301	5.3	5
0	18302	5.3	3
0	18303	5.3	5
0	18304	5.3	3
0	18305	5.3	1
0	18306	5.3	1
0	18307	5.3	3
0	18308	5.3	5
0	18309	5.3	3
0	18310	5.3	5
0	18311	5.3	8
0	18312	5.3	5
0	18313	5.3	3
0	18314	5.3	5
0	18315	5.3	3
0	18316	5.3	1
0	18317	5.3	1
0	18428	5.35	3
0	18429	5.35	5
0	18430	5.35	3
0	18431	5.35	5
0	18432	5.35	8
0	18433	5.35	5
0	18434	5.35	3
0	18435	5.35	5
0	18436	5.35	3
0	18437	5.35	1
0	18438	5.35	1
0	18527	5.4	3
0	18528	5.4	5
0	18529	5.4	3
0	18530	5.4	5
0	18531	5.4	8
0	18532	5.4	5
0	18533	5.4	3
0	18534	5.4	5
0	18535	5.4	3
0	18536	5.4	1
0	18537	5.4	1
0	18538	5.4	3
0	18539	5.4	5
0	18540	5.4	3
0	18541	5.4	5
0	18542	5.4	8
0	18543	5.4	5
0	18544	5.4	3
0	18545	5.4	5
0	18546	5.4	3
0	18547	5.4	1
0	18548	5.4	1
0	18682	5.45	3
0	18683	5.45	5
0	18684	5.45	3
0	18685	5.45	5
0	18686	5.45	8
0	18687	5.45	5
0	18688	5.45	3
0	18689	5.45	5
0	18690	5.45	3
0	18691	5.45	1
0	18692	5.45	1
0	18860	5.5	3
0	18861	5.5	5
0	18862	5.5	3
0	18863	5.5	5
0	18864	5.5	8
0	18865	5.5	5
0	18866	5.5	3
0	18867	5.5	5
0	18868	5.5	3
0	18869	5.5	1
0	18870	5.5	1
0	18871	5.5	3
0	18872	5.5	5
0	18873	5.5	3
0	18874	5.5	5
0	18875	5.5	8
0	18876	5.5	5
0	18877	5.5	3
0	18878	5.5	5
0	18879	5.5	3
0	18880	5.5	1
0	18881	5.5	1
0	19377	5.55	3
0	19378	5.55	5
0	19379	5.55	3
0	19380	5.55	5
0	19381	5.55	8
0	19382	5.55	5
0	19383	5.55	3
0	19384	5.55	5
0	19385	5.55	3
0	19386	5.55	1
0	19387	5.55	1
0	19532	5.6	3
0	19533	5.6	5
0	19534	5.6	3
0	19535	5.6	5
0	19536	5.6	8
0	19537	5.6	5
0	19538	5.6	3
0	19539	5.6	5
0	19540	5.6	3
0	19541	5.6	1
0	19542	5.6	1
0	19543	5.6	3
0	19544	5.6	5
0	19545	5.6	3
0	19546	5.6	5
0	19547	5.6	8
0	19548	5.6	5
0	19549	5.6	3
0	19550	5.6	5
0	19551	5.6	3
0	19552	5.6	1
0	19553	5.6	1
0	19756	5.65	3
0	19757	5.65	5
0	19758	5.65	3
0	19759	5.65	5
0	19760	5.65	8
0	19761	5.65	5
0	19762	5.65	3
0	19763	5.65	5
0	19764	5.65	3
0	19765	5.65	1
0	19766	5.65	1
0	19947	5.7	3
0	19948	5.7	5
0	19949	5.7	3
0	19950	5.7	5
0	19951	5.7	8
0	19952	5.7	5
0	19953	5.7	3
0	19954	5.7	5
0	19955	5.7	3
0	19956	5.7	1
0	19957	5.7	1
0	19958	5.7	3
0	19959	5.7	5
0	19960	5.7	3
0	19961	5.7	5
0	19962	5.7	8
0	19963	5.7	5
0	19964	5.7	3
0	19965	5.7	5
0	19966	5.7	3
0	19967	5.7	1
0	19968	5.7	1
0	20079	5.75	3
0	20080	5.75	5
0	20081	5.75	3
0	20082	5.75	5
0	20083	5.75	8
0	20084	5.75	5
0	20085	5.75	3
0	20086	5.75	5
0	20087	5.75	3
0	20088	5.75	1
0	20089	5.75	1
0	20178	5.8	3
0	20179	5.8	5
0	20180	5.8	3
0	20181	5.8	5
0	20182	5.8	8
0	20183	5.8	5
0	20184	5.8	3
0	20185	5.8	5
0	20186	5.8	3
0	20187	5.8	1
0	20188	5.8	1
0	20189	5.8	3
0	20190	5.8	5
0	20191	5.8	3
0	20192	5.8	5
0	20193	5.8	8
0	20194	5.8	5
0	20195	5.8	3
0	20196	5.8	5
0	20197	5.8	3
0	20198	5.8	1
0	20199	5.8	1
0	20310	5.85	3
0	20311	5.85	5
0	20312	5.85	3
0	20313	5.85	5
0	20314	5.85	8
0	20315	5.85	5
0	20316	5.85	3
0	20317	5.85	5
0	20318	5.85	3
0	20319	5.85	1
0	20320	5.85	1
0	20409	5.9	3
0	20410	5.9	5
0	20411	5.9	3
0	20412	5.9	5
0	20413	5.9	8
0	20414	5.9	5
0	20415	5.9	3
0	20416	5.9	5
0	20417	5.9	3
0	20418	5.9	1
0	20419	5.9	1
0	20420	5.9	3
0	20421	5.9	5
0	20422	5.9	3
0	20423	5.9	5
0	20424	5.9	8
0	20425	5.9	5
0	20426	5.9	3
0	20427	5.9	5
0	20428	5.9	3
0	20429	5.9	1
0	20430	5.9	1
0	20541	5.95	3
0	20542	5.95	5
0	20543	5.95	3
0	20544	5.95	5
0	20545	5.95	8
0	20546	5.95	5
0	20547	5.95	3
0	20548	5.95	5
0	20549	5.95	3
0	20550	5.95	1
0	20551	5.95	1
0	20661	6	3
0	20662	6	5
0	20663	6	3
0	20664	6	5
0	20665	6	8
0	20666	6	5
0	20667	6	3
0	20668	6	5
0	20669	6	3
0	20670	6	1
0	20671	6	1
0	20672	6	3
0	20673	6	5
0	20674	6	3
0	20675	6	5
0	20676	6	8
0	20677	6	5
0	20678	6	3
0	20679	6	5
0	20680	6	3
0	20681	6	1
0	20682	6	1
0	20902	6.05	3
0	20903	6.05	5
0	20904	6.05	3
0	20905	6.05	5
0	20906	6.05	8
0	20907	6.05	5
0	20908	6.05	3
0	20909	6.05	5
0	20910	6.05	3
0	20911	6.05	1
0	20912	6.05	1
0	21394	6.1	3
0	21395	6.1	5
0	21396	6.1	3
0	21397	6.1	5
0	21398	6.1	8
0	21399	6.1	5
0	21400	6.1	3
0	21401	6.1	5
0	21402	6.1	3
0	21403	6.1	1
0	21404	6.1	1
0	21405	6.1	3
0	21406	6.1	5
0	21407	6.1	3
0	21408	6.1	5
0	21409	6.1	8
0	21410	6.1	5
0	21411	6.1	3
0	21412	6.1	5
0	21413	6.1	3
0	21414	6.1	1
0	21415	6.1	1
0	21573	6.15	3
0	21574	6.15	5
0	21575	6.15	3
0	21576	6.15	5
0	21577	6.15	8
0	21578	6.15	5
0	21579	6.15	3
0	21580	6.15	5
0	21581	6.15	3
0	21582	6.15	1
0	21583	6.15	1
0	21781	6.2	3
0	21782	6.2	5
0	21783	6.2	3
0	21784	6.2	5
0	21785	6.2	8
0	21786	6.2	5
0	21787	6.2	3
0	21788	6.2	5
0	21789	6.2	3
0	21790	6.2	1
0	21791	6.2	1
0	21792	6.2	3
0	21793	6.2	5
0	21794	6.2	3
0	21795	6.2	5
0	21796	6.2	8
0	21797	6.2	5
0	21798	6.2	3
0	21799	6.2	5
0	21800	6.2	3
0	21801	6.2	1
0	21802	6.2	1
0	21987	6.25	3
0	21988	6.25	5
0	21989	6.25	3
0	21990	6.25	5
0	21991	6.25	8
0	21992	6.25	5
0	21993	6.25	3
0	21994	6.25	5
0	21995	6.25	3
0	21996	6.25	1
0	21997	6.25	1
0	22086	6.3	3
0	22087	6.3	5
0	22088	6.3	3
0	22089	6.3	5
0	22090	6.3	8
0	22091	6.3	5
0	22092	6.3	3
0	22093	6.3	5
0	22094	6.3	3
0	22095	6.3	1
0	22096	6.3	1
0	22097	6.3	3
0	22098	6.3	5
0	22099	6.3	3
0	22100	6.3	5
0	22101	6.3	8
0	22102	6.3	5
0	22103	6.3	3
0	22104	6.3	5
0	22105	6.3	3
0	22106	6.3	1
0	22107	6.3	1
0	22218	6.35	3
0	22219	6.35	5
0	22220	6.35	3
0	22221	6.35	5
0	22222	6.35	8
0	22223	6.35	5
0	22224	6.35	3
0	22225	6.35	5
0	22226	6.35	3
0	22227	6.35	1
0	22228	6.35	1
0	22317	6.4	3
0	22318	6.4	5
0	22319	6.4	3
0	22320	6.4	5
0	22321	6.4	8
0	22322	6.4	5
0	22323	6.4	3
0	22324	6.4	5
0	22325	6.4	3
0	22326	6.4	1
0	22327	6.4	1
0	22328	6.4	3
0	22329	6.4	5
0	22330	6.4	3
0	22331	6.4	5
0	22332	6.4	8
0	22333	6.4	5
0	22334	6.4	3
0	22335	6.4	5
0	22336	6.4	3
0	22337	6.4	1
0	22338	6.4	1
0	22449	6.45	3
0	22450	6.45	5
0	22451	6.45	3
0	22452	6.45	5
0	22453	6.45	8
0	22454	6.45	5
0	22455	6.45	3
0	22456	6.45	5
0	22457	6.45	3
0	22458	6.45	1
0	22459	6.45	1
0	22548	6.5	3
0	22549	6.5	5
0	22550	6.5	3
0	22551	6.5	5
0	22552	6.5	8
0	22553	6.5	5
0	22554	6.5	3
0	22555	6.5	5
0	22556	6.5	3
0	22557	6.5	1
0	22558	6.5	1
0	22559	6.5	3
0	22560	6.5	5
0	22561	6.5	3
0	22562	6.5	5
0	22563	6.5	8
0	22564	6.5	5
0	22565	6.5	3
0	22566	6.5	5
0	22567	6.5	3
0	22568	6.5	1
0	22569	6.5	1
0	22685	6.55	3
0	22686	6.55	5
0	22687	6.55	3
0	22688	6.55	5
0	22689	6.55	8
0	22690	6.55	5
0	22691	6.55	3
0	22692	6.55	5
0	22693	6.55	3
0	22694	6.55	1
0	22695	6.55	1
0	22875	6.6	3
0	22876	6.6	5
0	22877	6.6	3
0	22878	6.6	5
0	22879	6.6	8
0	22880	6.6	5
0	22881	6.6	3
0	22882	6.6	5
0	22883	6.6	3
0	22884	6.6	1
0	22885	6.6	1
0	22886	6.6	3
0	22887	6.6	5
0	22888	6.6	3
0	22889	6.6	5
0	22890	6.6	8
0	22891	6.6	5
0	22892	6.6	3
0	22893	6.6	5
0	22894	6.6	3
0	22895	6.6	1
0	22896	6.6	1
0	23366	6.65	3
0	23367	6.65	5
0	23368	6.65	3
0	23369	6.65	5
0	23370	6.65	8
0	23371	6.65	5
0	23372	6.65	3
0	23373	6.65	5
0	23374	6.65	3
0	23375	6.65	1
0	23376	6.65	1
0	23479	6.7	3
0	23480	6.7	5
0	23481	6.7	3
0	23482	6.7	5
0	23483	6.7	8
0	23484	6.7	5
0	23485	6.7	3
0	23486	6.7	5
0	23487	6.7	3
0	23488	6.7	1
0	23489	6.7	1
0	23490	6.7	3
0	23491	6.7	5
0	23492	6.7	3
0	23493	6.7	5
0	23494	6.7	8
0	23495	6.7	5
0	23496	6.7	3
0	23497	6.7	5
0	23498	6.7	3
0	23499	6.7	1
0	23500	6.7	1
0	23685	6.75	3
0	23686	6.75	5
0	23687	6.75	3
0	23688	6.75	5
0	23689	6.75	8
0	23690	6.75	5
0	23691	6.75	3
0	23692	6.75	5
0	23693	6.75	3
0	23694	6.75	1
0	23695	6.75	1
0	23858	6.8	3
0	23859	6.8	5
0	23860	6.8	3
0	23861	6.8	5
0	23862	6.8	8
0	23863	6.8	5
0	23864	6.8	3
0	23865	6.8	5
0	23866	6.8	3
0	23867	6.8	1
0	23868	6.8	1
0	23869	6.8	3
0	23870	6.8	5
0	23871	6.8	3
0	23872	6.8	5
0	23873	6.8	8
0	23874	6.8	5
0	23875	6.8	3
0	23876	6.8	5
0	23877	6.8	3
0	23878	6.8	1
0	23879	6.8	1
0	23990	6.85	3
0	23991	6.85	5
0	23992	6.85	3
0	23993	6.85	5
0	23994	6.85	8
0	23995	6.85	5
0	23996	6.85	3
0	23997	6.85	5
0	23998	6.85	3
0	23999	6.85	1
0	24000	6.85	1
0	24089	6.9	3
0	24090	6.9	5
0	24091	6.9	3
0	24092	6.9	5
0	24093	6.9	8
0	24094	6.9	5
0	24095	6.9	3
0	24096	6.9	5
0	24097	6.9	3
0	24098	6.9	1
0	24099	6.9	1
0	24100	6.9	3
0	24101	6.9	5
0	24102	6.9	3
0	24103	6.9	5
0	24104	6.9	8
0	24105	6.9	5
0	24106	6.9	3
0	24107	6.9	5
0	24108	6.9	3
0	24109	6.9	1
0	24110	6.9	1
0	24221	6.95	3
0	24222	6.95	5
0	24223	6.95	3
0	24224	6.95	5
0	24225	6.95	8
0	24226	6.95	5
0	24227	6.95	3
0	24228	6.95	5
0	24229	6.95	3
0	24230	6.95	1
0	24231	6.95	1
0	24331	7	3
0	24332	7	5
0	24333	7	3
0	24334	7	5
0	24335	7	8
0	24336	7	5
0	24337	7	3
0	24338	7	5
0	24339	7	3
0	24340	7	1
0	24341	7	1
0	24342	7	3
0	24343	7	5
0	24344	7	3
0	24345	7	5
0	24346	7	8
0	24347	7	5
0	24348	7	3
0	24349	7	5
0	24350	7	3
0	24351	7	1
0	24352	7	1
0	24463	7.05	3
0	24464	7.05	5
0	24465	7.05	3
0	24466	7.05	5
0	24467	7.05	8
0	24468	7.05	5
0	24469	7.05	3
0	24470	7.05	5
0	24471	7.05	3
0	24472	7.05	1
0	24473	7.05	1
0	24596	7.1	3
0	24597	7.1	5
0	24598	7.1	3
0	24599	7.1	5
0	24600	7.1	8
0	24601	7.1	5
0	24602	7.1	3
0	24603	7.1	5
0	24604	7.1	3
0	24605	7.1	1
0	24606	7.1	1
0	24607	7.1	3
0	24608	7.1	5
0	24609	7.1	3
0	24610	7.1	5
0	24611	7.1	8
0	24612	7.1	5
0	24613	7.1	3
0	24614	7.1	5
0	24615	7.1	3
0	24616	7.1	1
0	24617	7.1	1
0	24800	7.15	3
0	24801	7.15	5
0	24802	7.15	3
0	24803	7.15	5
0	24804	7.15	8
0	24805	7.15	5
0	24806	7.15	3
0	24807	7.15	5
0	24808	7.15	3
0	24809	7.15	1
0	24810	7.15	1
0	25234	7.2	3
0	25235	7.2	5
0	25236	7.2	3
0	25237	7.2	5
0	25238	7.2	8
0	25239	7.2	5
0	25240	7.2	3
0	25241	7.2	5
0	25242	7.2	3
0	25243	7.2	1
0	25244	7.2	1
0	25245	7.2	3
0	25246	7.2	5
0	25247	7.2	3
0	25248	7.2	5
0	25249	7.2	8
0	25250	7.2	5
0	25251	7.2	3
0	25252	7.2	5
0	25253	7.2	3
0	25254	7.2	1
0	25255	7.2	1
0	25398	7.25	3
0	25399	7.25	5
0	25400	7.25	3
0	25401	7.25	5
0	25402	7.25	8
0	25403	7.25	5
0	25404	7.25	3
0	25405	7.25	5
0	25406	7.25	3
0	25407	7.25	1
0	25408	7.25	1
0	25537	7.3	3
0	25538	7.3	5
0	25539	7.3	3
0	25540	7.3	5
0	25541	7.3	8
0	25542	7.3	5
0	25543	7.3	3
0	25544	7.3	5
0	25545	7.3	3
0	25546	7.3	1
0	25547	7.3	1
0	25548	7.3	3
0	25549	7.3	5
0	25550	7.3	3
0	25551	7.3	5
0	25552	7.3	8
0	25553	7.3	5
0	25554	7.3	3
0	25555	7.3	5
0	25556	7.3	3
0	25557	7.3	1
0	25558	7.3	1
0	25761	7.35	3
0	25762	7.35	5
0	25763	7.35	3
0	25764	7.35	5
0	25765	7.35	8
0	25766	7.35	5
0	25767	7.35	3
0	25768	7.35	5
0	25769	7.35	3
0	25770	7.35	1
0	25771	7.35	1
0	25860	7.4	3
0	25861	7.4	5
0	25862	7.4	3
0	25863	7.4	5
0	25864	7.4	8
0	25865	7.4	5
0	25866	7.4	3
0	25867	7.4	5
0	25868	7.4	3
0	25869	7.4	1
0	25870	7.4	1
0	25871	7.4	3
0	25872	7.4	5
0	25873	7.4	3
0	25874	7.4	5
0	25875	7.4	8
0	25876	7.4	5
0	25877	7.4	3
0	25878	7.4	5
0	25879	7.4	3
0	25880	7.4	1
0	25881	7.4	1
0	26015	7.45	3
0	26016	7.45	5
0	26017	7.45	3
0	26018	7.45	5
0	26019	7.45	8
0	26020	7.45	5
0	26021	7.45	3
0	26022	7.45	5
0	26023	7.45	3
0	26024	7.45	1
0	26025	7.45	1
0	26114	7.5	3
0	26115	7.5	5
0	26116	7.5	3
0	26117	7.5	5
0	26118	7.5	8
0	26119	7.5	5
0	26120	7.5	3
0	26121	7.5	5
0	26122	7.5	3
0	26123	7.5	1
0	26124	7.5	1
0	26125	7.5	3
0	26126	7.5	5
0	26127	7.5	3
0	26128	7.5	5
0	26129	7.5	8
0	26130	7.5	5
0	26131	7.5	3
0	26132	7.5	5
0	26133	7.5	3
0	26134	7.5	1
0	26135	7.5	1
0	26246	7.55	3
0	26247	7.55	5
0	26248	7.55	3
0	26249	7.55	5
0	26250	7.55	8
0	26251	7.55	5
0	26252	7.55	3
0	26253	7.55	5
0	26254	7.55	3
0	26255	7.55	1
0	26256	7.55	1
0	26345	7.6	3
0	26346	7.6	5
0	26347	7.6	3
0	26348	7.6	5
0	26349	7.6	8
0	26350	7.6	5
0	26351	7.6	3
0	26352	7.6	5
0	26353	7.6	3
0	26354	7.6	1
0	26355	7.6	1
0	26356	7.6	3
0	26357	7.6	5
0	26358	7.6	3
0	26359	7.6	5
0	26360	7.6	8
0	26361	7.6	5
0	26362	7.6	3
0	26363	7.6	5
0	26364	7.6	3
0	26365	7.6	1
0	26366	7.6	1
0	26500	7.65	3
0	26501	7.65	5
0	26502	7.65	3
0	26503	7.65	5
0	26504	7.65	8
0	26505	7.65	5
0	26506	7.65	3
0	26507	7.65	5
0	26508	7.65	3
0	26509	7.65	1
0	26510	7.65	1
0	26691	7.7	3
0	26692	7.7	5
0	26693	7.7	3
0	26694	7.7	5
0	26695	7.7	8
0	26696	7.7	5
0	26697	7.7	3
0	26698	7.7	5
0	26699	7.7	3
0	26700	7.7	1
0	26701	7.7	1
0	26702	7.7	3
0	26703	7.7	5
0	26704	7.7	3
0	26705	7.7	5
0	26706	7.7	8
0	26707	7.7	5
0	26708	7.7	3
0	26709	7.7	5
0	26710	7.7	3
0	26711	7.7	1
0	26712	7.7	1
0	27144	7.75	3
0	27145	7.75	5
0	27146	7.75	3
0	27147	7.75	5
0	27148	7.75	8
0	27149	7.75	5
0	27150	7.75	3
0	27151	7.75	5
0	27152	7.75	3
0	27153	7.75	1
0	27154	7.75	1
0	27283	7.8	3
0	27284	7.8	5
0	27285	7.8	3
0	27286	7.8	5
0	27287	7.8	8
0	27288	7.8	5
0	27289	7.8	3
0	27290	7.8	5
0	27291	7.8	3
0	27292	7.8	1
0	27293	7.8	1
0	27294	7.8	3
0	27295	7.8	5
0	27296	7.8	3
0	27297	7.8	5
0	27298	7.8	8
0	27299	7.8	5
0	27300	7.8	3
0	27301	7.8	5
0	27302	7.8	3
0	27303	7.8	1
0	27304	7.8	1
0	27494	7.85	3
0	27495	7.85	5
0	27496	7.85	3
0	27497	7.85	5
0	27498	7.85	8
0	27499	7.85	5
0	27500	7.85	3
0	27501	7.85	5
0	27502	7.85	3
0	27503	7.85	1
0	27504	7.85	1
0	27685	7.9	3
0	27686	7.9	5
0	27687	7.9	3
0	27688	7.9	5
0	27689	7.9	8
0	27690	7.9	5
0	27691	7.9	3
0	27692	7.9	5
0	27693	7.9	3
0	27694	7.9	1
0	27695	7.9	1
0	27696	7.9	3
0	27697	7.9	5
0	27698	7.9	3
0	27699	7.9	5
0	27700	7.9	8
0	27701	7.9	5
0	27702	7.9	3
0	27703	7.9	5
0	27704	7.9	3
0	27705	7.9	1
0	27706	7.9	1
0	27822	7.95	3
0	27823	7.95	5
0	27824	7.95	3
0	27825	7.95	5
0	27826	7.95	8
0	27827	7.95	5
0	27828	7.95	3
0	27829	7.95	5
0	27830	7.95	3
0	27831	7.95	1
0	27832	7.95	1
0	27955	8	3
0	27956	8	5
0	27957	8	3
0	27958	8	5
0	27959	8	8
0	27960	8	5
0	27961	8	3
0	27962	8	5
0	27963	8	3
0	27964	8	1
0	27965	8	1
0	27966	8	3
0	27967	8	5
0	27968	8	3
0	27969	8	5
0	27970	8	8
0	27971	8	5
0	27972	8	3
0	27973	8	5
0	27974	8	3
0	27975	8	1
0	27976	8	1
0	28087	8.05	3
0	28088	8.05	5
0	28089	8.05	3
0	28090	8.05	5
0	28091	8.05	8
0	28092	8.05	5
0	28093	8.05	3
0	28094	8.05	5
0	28095	8.05	3
0	28096	8.05	1
0	28097	8.05	1
0	28197	8.1	3
0	28198	8.1	5
0	28199	8.1	3
0	28200	8.1	5
0	28201	8.1	8
0	28202	8.1	5
0	28203	8.1	3
0	28204	8.1	5
0	28205	8.1	3
0	28206	8.1	1
0	28207	8.1	1
0	28208	8.1	3
0	28209	8.1	5
0	28210	8.1	3
0	28211	8.1	5
0	28212	8.1	8
0	28213	8.1	5
0	28214	8.1	3
0	28215	8.1	5
0	28216	8.1	3
0	28217	8.1	1
0	28218	8.1	1
0	28340	8.15	3
0	28341	8.15	5
0	28342	8.15	3
0	28343	8.15	5
0	28344	8.15	8
0	28345	8.15	5
0	28346	8.15	3
0	28347	8.15	5
0	28348	8.15	3
0	28349	8.15	1
0	28350	8.15	1
0	28542	8.2	3
0	28543	8.2	5
0	28544	8.2	3
0	28545	8.2	5
0	28546	8.2	8
0	28547	8.2	5
0	28548	8.2	3
0	28549	8.2	5
0	28550	8.2	3
0	28551	8.2	1
0	28552	8.2	1
0	28553	8.2	3
0	28554	8.2	5
0	28555	8.2	3
0	28556	8.2	5
0	28557	8.2	8
0	28558	8.2	5
0	28559	8.2	3
0	28560	8.2	5
0	28561	8.2	3
0	28562	8.2	1
0	28563	8.2	1
0	28674	8.25	3
0	28675	8.25	5
0	28676	8.25	3
0	28677	8.25	5
0	28678	8.25	8
0	28679	8.25	5
0	28680	8.25	3
0	28681	8.25	5
0	28682	8.25	3
0	28683	8.25	1
0	28684	8.25	1
0	29035	8.3	3
0	29036	8.3	5
0	29037	8.3	3
0	29038	8.3	5
0	29039	8.3	8
0	29040	8.3	5
0	29041	8.3	3
0	29042	8.3	5
0	29043	8.3	3
0	29044	8.3	1
0	29045	8.3	1
0	29046	8.3	3
0	29047	8.3	5
0	29048	8.3	3
0	29049	8.3	5
0	29050	8.3	8
0	29051	8.3	5
0	29052	8.3	3
0	29053	8.3	5
0	29054	8.3	3
0	29055	8.3	1
0	29056	8.3	1
0	29264	8.35	3
0	29265	8.35	5
0	29266	8.35	3
0	29267	8.35	5
0	29268	8.35	8
0	29269	8.35	5
0	29270	8.35	3
0	29271	8.35	5
0	29272	8.35	3
0	29273	8.35	1
0	29274	8.35	1
0	29414	8.4	3
0	29415	8.4	5
0	29416	8.4	3
0	29417	8.4	5
0	29418	8.4	8
0	29419	8.4	5
0	29420	8.4	3
0	29421	8.4	5
0	29422	8.4	3
0	29423	8.4	1
0	29424	8.4	1
0	29425	8.4	3
0	29426	8.4	5
0	29427	8.4	3
0	29428	8.4	5
0	29429	8.4	8
0	29430	8.4	5
0	29431	8.4	3
0	29432	8.4	5
0	29433	8.4	3
0	29434	8.4	1
0	29435	8.4	1
0	29615	8.45	3
0	29616	8.45	5
0	29617	8.45	3
0	29618	8.45	5
0	29619	8.45	8
0	29620	8.45	5
0	29621	8.45	3
0	29622	8.45	5
0	29623	8.45	3
0	29624	8.45	1
0	29625	8.45	1
0	29742	8.5	3
0	29743	8.5	5
0	29744	8.5	3
0	29745	8.5	5
0	29746	8.5	8
0	29747	8.5	5
0	29748	8.5	3
0	29749	8.5	5
0	29750	8.5	3
0	29751	8.5	1
0	29752	8.5	1
0	29753	8.5	3
0	29754	8.5	5
0	29755	8.5	3
0	29756	8.5	5
0	29757	8.5	8
0	29758	8.5	5
0	29759	8.5	3
0	29760	8.5	5
0	29761	8.5	3
0	29762	8.5	1
0	29763	8.5	1
0	29897	8.55	3
0	29898	8.55	5
0	29899	8.55	3
0	29900	8.55	5
0	29901	8.55	8
0	29902	8.55	5
0	29903	8.55	3
0	29904	8.55	5
0	29905	8.55	3
0	29906	8.55	1
0	29907	8.55	1
0	29996	8.6	3
0	29997	8.6	5
0	29998	8.6	3
0	29999	8.6	5
0	30000	8.6	8
0	30001	8.6	5
0	30002	8.6	3
0	30003	8.6	5
0	30004	8.6	3
0	30005	8.6	1
0	30006	8.6	1
0	30007	8.6	3
0	30008	8.6	5
0	30009	8.6	3
0	30010	8.6	5
0	30011	8.6	8
0	30012	8.6	5
0	30013	8.6	3
0	30014	8.6	5
0	30015	8.6	3
0	30016	8.6	1
0	30017	8.6	1
0	30128	8.65	3
0	30129	8.65	5
0	30130	8.65	3
0	30131	8.65	5
0	30132	8.65	8
0	30133	8.65	5
0	30134	8.65	3
0	30135	8.65	5
0	30136	8.65	3
0	30137	8.65	1
0	30138	8.65	1
0	30227	8.7	3
0	30228	8.7	5
0	30229	8.7	3
0	30230	8.7	5
0	30231	8.7	8
0	30232	8.7	5
0	30233	8.7	3
0	30234	8.7	5
0	30235	8.7	3
0	30236	8.7	1
0	30237	8.7	1
0	30238	8.7	3
0	30239	8.7	5
0	30240	8.7	3
0	30241	8.7	5
0	30242	8.7	8
0	30243	8.7	5
0	30244	8.7	3
0	30245	8.7	5
0	30246	8.7	3
0	30247	8.7	1
0	30248	8.7	1
0	30428	8.75	3
0	30429	8.75	5
0	30430	8.75	3
0	30431	8.75	5
0	30432	8.75	8
0	30433	8.75	5
0	30434	8.75	3
0	30435	8.75	5
0	30436	8.75	3
0	30437	8.75	1
0	30438	8.75	1
0	30527	8.8	3
0	30528	8.8	5
0	30529	8.8	3
0	30530	8.8	5
0	30531	8.8	8
0	30532	8.8	5
0	30533	8.8	3
0	30534	8.8	5
0	30535	8.8	3
0	30536	8.8	1
0	30537	8.8	1
0	30538	8.8	3
0	30539	8.8	5
0	30540	8.8	3
0	30541	8.8	5
0	30542	8.8	8
0	30543	8.8	5
0	30544	8.8	3
0	30545	8.8	5
0	30546	8.8	3
0	30547	8.8	1
0	30548	8.8	1
0	30906	8.85	3
0	30907	8.85	5
0	30908	8.85	3
0	30909	8.85	5
0	30910	8.85	8
0	30911	8.85	5
0	30912	8.85	3
0	30913	8.85	5
0	30914	8.85	3
0	30915	8.85	1
0	30916	8.85	1
0	31068	8.9	3
0	31069	8.9	5
0	31070	8.9	3
0	31071	8.9	5
0	31072	8.9	8
0	31073	8.9	5
0	31074	8.9	3
0	31075	8.9	5
0	31076	8.9	3
0	31077	8.9	1
0	31078	8.9	1
0	31079	8.9	3
0	31080	8.9	5
0	31081	8.9	3
0	31082	8.9	5
0	31083	8.9	8
0	31084	8.9	5
0	31085	8.9	3
0	31086	8.9	5
0	31087	8.9	3
0	31088	8.9	1
0	31089	8.9	1
0	31269	8.95	3
0	31270	8.95	5
0	31271	8.95	3
0	31272	8.95	5
0	31273	8.95	8
0	31274	8.95	5
0	31275	8.95	3
0	31276	8.95	5
0	31277	8.95	3
0	31278	8.95	1
0	31279	8.95	1
0	31430	9	3
0	31431	9	5
0	31432	9	3
0	31433	9	5
0	31434	9	8
0	31435	9	5
0	31436	9	3
0	31437	9	5
0	31438	9	3
0	31439	9	1
0	31440	9	1
0	31441	9	3
0	31442	9	5
0	31443	9	3
0	31444	9	5
0	31445	9	8
0	31446	9	5
0	31447	9	3
0	31448	9	5
0	31449	9	3
0	31450	9	1
0	31451	9	1
0	31567	9.05	3
0	31568	9.05	5
0	31569	9.05	3
0	31570	9.05	5
0	31571	9.05	8
0	31572	9.05	5
0	31573	9.05	3
0	31574	9.05	5
0	31575	9.05	3
0	31576	9.05	1
0	31577	9.05	1
0	31723	9.1	3
0	31724	9.1	5
0	31725	9.1	3
0	31726	9.1	5
0	31727	9.1	8
0	31728	9.1	5
0	31729	9.1	3
0	31730	9.1	5
0	31731	9.1	3
0	31732	9.1	1
0	31733	9.1	1
0	31734	9.1	3
0	31735	9.1	5
0	31736	9.1	3
0	31737	9.1	5
0	31738	9.1	8
0	31739	9.1	5
0	31740	9.1	3
0	31741	9.1	5
0	31742	9.1	3
0	31743	9.1	1
0	31744	9.1	1
0	31866	9.15	3
0	31867	9.15	5
0	31868	9.15	3
0	31869	9.15	5
0	31870	9.15	8
0	31871	9.15	5
0	31872	9.15	3
0	31873	9.15	5
0	31874	9.15	3
0	31875	9.15	1
0	31876	9.15	1
0	31965	9.2	3
0	31966	9.2	5
0	31967	9.2	3
0	31968	9.2	5
0	31969	9.2	8
0	31970	9.2	5
0	31971	9.2	3
0	31972	9.2	5
0	31973	9.2	3
0	31974	9.2	1
0	31975	9.2	1
0	31976	9.2	3
0	31977	9.2	5
0	31978	9.2	3
0	31979	9.2	5
0	31980	9.2	8
0	31981	9.2	5
0	31982	9.2	3
0	31983	9.2	5
0	31984	9.2	3
0	31985	9.2	1
0	31986	9.2	1
0	32137	9.25	3
0	32138	9.25	5
0	32139	9.25	3
0	32140	9.25	5
0	32141	9.25	8
0	32142	9.25	5
0	32143	9.25	3
0	32144	9.25	5
0	32145	9.25	3
0	32146	9.25	1
0	32147	9.25	1
0	32269	9.3	3
0	32270	9.3	5
0	32271	9.3	3
0	32272	9.3	5
0	32273	9.3	8
0	32274	9.3	5
0	32275	9.3	3
0	32276	9.3	5
0	32277	9.3	3
0	32278	9.3	1
0	32279	9.3	1
0	32280	9.3	3
0	32281	9.3	5
0	32282	9.3	3
0	32283	9.3	5
0	32284	9.3	8
0	32285	9.3	5
0	32286	9.3	3
0	32287	9.3	5
0	32288	9.3	3
0	32289	9.3	1
0	32290	9.3	1
0	32401	9.35	3
0	32402	9.35	5
0	32403	9.35	3
0	32404	9.35	5
0	32405	9.35	8
0	32406	9.35	5
0	32407	9.35	3
0	32408	9.35	5
0	32409	9.35	3
0	32410	9.35	1
0	32411	9.35	1
0	32751	9.4	3
0	32752	9.4	5
0	32753	9.4	3
0	32754	9.4	5
0	32755	9.4	8
0	32756	9.4	5
0	32757	9.4	3
0	32758	9.4	5
0	32759	9.4	3
0	32760	9.4	1
0	32761	9.4	1
0	32762	9.4	3
0	32763	9.4	5
0	32764	9.4	3
0	32765	9.4	5
0	32766	9.4	8
0	32767	9.4	5
0	32768	9.4	3
0	32769	9.4	5
0	32770	9.4	3
0	32771	9.4	1
0	32772	9.4	1
0	32906	9.45	3
0	32907	9.45	5
0	32908	9.45	3
0	32909	9.45	5
0	32910	9.45	8
0	32911	9.45	5
0	32912	9.45	3
0	32913	9.45	5
0	32914	9.45	3
0	32915	9.45	1
0	32916	9.45	1
0	33097	9.5	3
0	33098	9.5	5
0	33099	9.5	3
0	33100	9.5	5
0	33101	9.5	8
0	33102	9.5	5
0	33103	9.5	3
0	33104	9.5	5
0	33105	9.5	3
0	33106	9.5	1
0	33107	9.5	1
0	33108	9.5	3
0	33109	9.5	5
0	33110	9.5	3
0	33111	9.5	5
0	33112	9.5	8
0	33113	9.5	5
0	33114	9.5	3
0	33115	9.5	5
0	33116	9.5	3
0	33117	9.5	1
0	33118	9.5	1
0	33275	9.55	3
0	33276	9.55	5
0	33277	9.55	3
0	33278	9.55	5
0	33279	9.55	8
0	33280	9.55	5
0	33281	9.55	3
0	33282	9.55	5
0	33283	9.55	3
0	33284	9.55	1
0	33285	9.55	1
0	33374	9.6	3
0	33375	9.6	5
0	33376	9.6	3
0	33377	9.6	5
0	33378	9.6	8
0	33379	9.6	5
0	33380	9.6	3
0	33381	9.6	5
0	33382	9.6	3
0	33383	9.6	1
0	33384	9.6	1
0	33385	9.6	3
0	33386	9.6	5
0	33387	9.6	3
0	33388	9.6	5
0	33389	9.6	8
0	33390	9.6	5
0	33391	9.6	3
0	33392	9.6	5
0	33393	9.6	3
0	33394	9.6	1
0	33395	9.6	1
0	33557	9.65	3
0	33558	9.65	5
0	33559	9.65	3
0	33560	9.65	5
0	33561	9.65	8
0	33562	9.65	5
0	33563	9.65	3
0	33564	9.65	5
0	33565	9.65	3
0	33566	9.65	1
0	33567	9.65	1
0	33656	9.7	3
0	33657	9.7	5
0	33658	9.7	3
0	33659	9.7	5
0	33660	9.7	8
0	33661	9.7	5
0	33662	9.7	3
0	33663	9.7	5
0	33664	9.7	3
0	33665	9.7	1
0	33666	9.7	1
0	33667	9.7	3
0	33668	9.7	5
0	33669	9.7	3
0	33670	9.7	5
0	33671	9.7	8
0	33672	9.7	5
0	33673	9.7	3
0	33674	9.7	5
0	33675	9.7	3
0	33676	9.7	1
0	33677	9.7	1
0	33788	9.75	3
0	33789	9.75	5
0	33790	9.75	3
0	33791	9.75	5
0	33792	9.75	8
0	33793	9.75	5
0	33794	9.75	3
0	33795	9.75	5
0	33796	9.75	3
0	33797	9.75	1
0	33798	9.75	1
0	33967	9.8	3
0	33968	9.8	5
0	33969	9.8	3
0	33970	9.8	5
0	33971	9.8	8
0	33972	9.8	5
0	33973	9.8	3
0	33974	9.8	5
0	33975	9.8	3
0	33976	9.8	1
0	33977	9.8	1
0	33978	9.8	3
0	33979	9.8	5
0	33980	9.8	3
0	33981	9.8	5
0	33982	9.8	8
0	33983	9.8	5
0	33984	9.8	3
0	33985	9.8	5
0	33986	9.8	3
0	33987	9.8	1
0	33988	9.8	1
0	34122	9.85	3
0	34123	9.85	5
0	34124	9.85	3
0	34125	9.85	5
0	34126	9.85	8
0	34127	9.85	5
0	34128	9.85	3
0	34129	9.85	5
0	34130	9.85	3
0	34131	9.85	1
0	34132	9.85	1
0	34267	9.9	3
0	34268	9.9	5
0	34269	9.9	3
0	34270	9.9	5
0	34271	9.9	8
0	34272	9.9	5
0	34273	9.9	3
0	34274	9.9	5
0	34275	9.9	3
0	34276	9.9	1
0	34277	9.9	1
0	34278	9.9	3
0	34279	9.9	5
0	34280	9.9	3
0	34281	9.9	5
0	34282	9.9	8
0	34283	9.9	5
0	34284	9.9	3
0	34285	9.9	5
0	34286	9.9	3
0	34287	9.9	1
0	34288	9.9	1
0	34702	9.95	3
0	34703	9.95	5
0	34704	9.95	3
0	34705	9.95	5
0	34706	9.95	8
0	34707	9.95	5
0	34708	9.95	3
0	34709	9.95	5
0	34710	9.95	3
0	34711	9.95	1
0	34712	9.95	1
0	34835	10	3
0	34836	10	5
0	34837	10	3
0	34838	10	5
0	34839	10	8
0	34840	10	5
0	34841	10	3
0	34842	10	5
0	34843	10	3
0	34844	10	1
0	34845	10	1
0	34846	10	3
0	34847	10	5
0	34848	10	3
0	34849	10	5
0	34850	10	8
0	34851	10	5
0	34852	10	3
0	34853	10	5
0	34854	10	3
0	34855	10	1
0	34856	10	1
0	35013	10.05	3
0	35014	10.05	5
0	35015	10.05	3
0	35016	10.05	5
0	35017	10.05	8
0	35018	10.05	5
0	35019	10.05	3
0	35020	10.05	5
0	35021	10.05	3
0	35022	10.05	1
0	35023	10.05	1
0	35232	10.1	3
0	35233	10.1	5
0	35234	10.1	3
0	35235	10.1	5
0	35236	10.1	8
0	35237	10.1	5
0	35238	10.1	3
0	35239	10.1	5
0	35240	10.1	3
0	35241	10.1	1
0	35242	10.1	1
0	35243	10.1	3
0	35244	10.1	5
0	35245	10.1	3
0	35246	10.1	5
0	35247	10.1	8
0	35248	10.1	5
0	35249	10.1	3
0	35250	10.1	5
0	35251	10.1	3
0	35252	10.1	1
0	35253	10.1	1
0	35375	10.15	3
0	35376	10.15	5
0	35377	10.15	3
0	35378	10.15	5
0	35379	10.15	8
0	35380	10.15	5
0	35381	10.15	3
0	35382	10.15	5
0	35383	10.15	3
0	35384	10.15	1
0	35385	10.15	1
0	35514	10.2	3
0	35515	10.2	5
0	35516	10.2	3
0	35517	10.2	5
0	35518	10.2	8
0	35519	10.2	5
0	35520	10.2	3
0	35521	10.2	5
0	35522	10.2	3
0	35523	10.2	1
0	35524	10.2	1
0	35525	10.2	3
0	35526	10.2	5
0	35527	10.2	3
0	35528	10.2	5
0	35529	10.2	8
0	35530	10.2	5
0	35531	10.2	3
0	35532	10.2	5
0	35533	10.2	3
0	35534	10.2	1
0	35535	10.2	1
0	35646	10.25	3
0	35647	10.25	5
0	35648	10.25	3
0	35649	10.25	5
0	35650	10.25	8
0	35651	10.25	5
0	35652	10.25	3
0	35653	10.25	5
0	35654	10.25	3
0	35655	10.25	1
0	35656	10.25	1
0	35745	10.3	3
0	35746	10.3	5
0	35747	10.3	3
0	35748	10.3	5
0	35749	10.3	8
0	35750	10.3	5
0	35751	10.3	3
0	35752	10.3	5
0	35753	10.3	3
0	35754	10.3	1
0	35755	10.3	1
0	35756	10.3	3
0	35757	10.3	5
0	35758	10.3	3
0	35759	10.3	5
0	35760	10.3	8
0	35761	10.3	5
0	35762	10.3	3
0	35763	10.3	5
0	35764	10.3	3
0	35765	10.3	1
0	35766	10.3	1
0	35923	10.35	3
0	35924	10.35	5
0	35925	10.35	3
0	35926	10.35	5
0	35927	10.35	8
0	35928	10.35	5
0	35929	10.35	3
0	35930	10.35	5
0	35931	10.35	3
0	35932	10.35	1
0	35933	10.35	1
0	36045	10.4	3
0	36046	10.4	5
0	36047	10.4	3
0	36048	10.4	5
0	36049	10.4	8
0	36050	10.4	5
0	36051	10.4	3
0	36052	10.4	5
0	36053	10.4	3
0	36054	10.4	1
0	36055	10.4	1
0	36056	10.4	3
0	36057	10.4	5
0	36058	10.4	3
0	36059	10.4	5
0	36060	10.4	8
0	36061	10.4	5
0	36062	10.4	3
0	36063	10.4	5
0	36064	10.4	3
0	36065	10.4	1
0	36066	10.4	1
0	36222	10.45	3
0	36223	10.45	5
0	36224	10.45	3
0	36225	10.45	5
0	36226	10.45	8
0	36227	10.45	5
0	36228	10.45	3
0	36229	10.45	5
0	36230	10.45	3
0	36231	10.45	1
0	36232	10.45	1
0	36660	10.5	3
0	36661	10.5	5
0	36662	10.5	3
0	36663	10.5	5
0	36664	10.5	8
0	36665	10.5	5
0	36666	10.5	3
0	36667	10.5	5
0	36668	10.5	3
0	36669	10.5	1
0	36670	10.5	1
0	36671	10.5	3
0	36672	10.5	5
0	36673	10.5	3
0	36674	10.5	5
0	36675	10.5	8
0	36676	10.5	5
0	36677	10.5	3
0	36678	10.5	5
0	36679	10.5	3
0	36680	10.5	1
0	36681	10.5	1
0	36838	10.55	3
0	36839	10.55	5
0	36840	10.55	3
0	36841	10.55	5
0	36842	10.55	8
0	36843	10.55	5
0	36844	10.55	3
0	36845	10.55	5
0	36846	10.55	3
0	36847	10.55	1
0	36848	10.55	1
0	37006	10.6	3
0	37007	10.6	5
0	37008	10.6	3
0	37009	10.6	5
0	37010	10.6	8
0	37011	10.6	5
0	37012	10.6	3
0	37013	10.6	5
0	37014	10.6	3
0	37015	10.6	1
0	37016	10.6	1
0	37017	10.6	3
0	37018	10.6	5
0	37019	10.6	3
0	37020	10.6	5
0	37021	10.6	8
0	37022	10.6	5
0	37023	10.6	3
0	37024	10.6	5
0	37025	10.6	3
0	37026	10.6	1
0	37027	10.6	1
0	37263	10.65	3
0	37264	10.65	5
0	37265	10.65	3
0	37266	10.65	5
0	37267	10.65	8
0	37268	10.65	5
0	37269	10.65	3
0	37270	10.65	5
0	37271	10.65	3
0	37272	10.65	1
0	37273	10.65	1
0	37385	10.7	3
0	37386	10.7	5
0	37387	10.7	3
0	37388	10.7	5
0	37389	10.7	8
0	37390	10.7	5
0	37391	10.7	3
0	37392	10.7	5
0	37393	10.7	3
0	37394	10.7	1
0	37395	10.7	1
0	37396	10.7	3
0	37397	10.7	5
0	37398	10.7	3
0	37399	10.7	5
0	37400	10.7	8
0	37401	10.7	5
0	37402	10.7	3
0	37403	10.7	5
0	37404	10.7	3
0	37405	10.7	1
0	37406	10.7	1
0	37557	10.75	3
0	37558	10.75	5
0	37559	10.75	3
0	37560	10.75	5
0	37561	10.75	8
0	37562	10.75	5
0	37563	10.75	3
0	37564	10.75	5
0	37565	10.75	3
0	37566	10.75	1
0	37567	10.75	1
0	37656	10.8	3
0	37657	10.8	5
0	37658	10.8	3
0	37659	10.8	5
0	37660	10.8	8
0	37661	10.8	5
0	37662	10.8	3
0	37663	10.8	5
0	37664	10.8	3
0	37665	10.8	1
0	37666	10.8	1
0	37667	10.8	3
0	37668	10.8	5
0	37669	10.8	3
0	37670	10.8	5
0	37671	10.8	8
0	37672	10.8	5
0	37673	10.8	3
0	37674	10.8	5
0	37675	10.8	3
0	37676	10.8	1
0	37677	10.8	1
0	37788	10.85	3
0	37789	10.85	5
0	37790	10.85	3
0	37791	10.85	5
0	37792	10.85	8
0	37793	10.85	5
0	37794	10.85	3
0	37795	10.85	5
0	37796	10.85	3
0	37797	10.85	1
0	37798	10.85	1
0	37915	10.9	3
0	37916	10.9	5
0	37917	10.9	3
0	37918	10.9	5
0	37919	10.9	8
0	37920	10.9	5
0	37921	10.9	3
0	37922	10.9	5
0	37923	10.9	3
0	37924	10.9	1
0	37925	10.9	1
0	37926	10.9	3
0	37927	10.9	5
0	37928	10.9	3
0	37929	10.9	5
0	37930	10.9	8
0	37931	10.9	5
0	37932	10.9	3
0	37933	10.9	5
0	37934	10.9	3
0	37935	10.9	1
0	37936	10.9	1
0	38070	10.95	3
0	38071	10.95	5
0	38072	10.95	3
0	38073	10.95	5
0	38074	10.95	8
0	38075	10.95	5
0	38076	10.95	3
0	38077	10.95	5
0	38078	10.95	3
0	38079	10.95	1
0	38080	10.95	1
0	38225	11	3
0	38226	11	5
0	38227	11	3
0	38228	11	5
0	38229	11	8
0	38230	11	5
0	38231	11	3
0	38232	11	5
0	38233	11	3
0	38234	11	1
0	38235	11	1
0	38236	11	3
0	38237	11	5
0	38238	11	3
0	38239	11	5
0	38240	11	8
0	38241	11	5
0	38242	11	3
0	38243	11	5
0	38244	11	3
0	38245	11	1
0	38246	11	1
0	38718	11.05	3
0	38719	11.05	5
0	38720	11.05	3
0	38721	11.05	5
0	38722	11.05	8
0	38723	11.05	5
0	38724	11.05	3
0	38725	11.05	5
0	38726	11.05	3
0	38727	11.05	1
0	38728	11.05	1
0	39055	11.1	3
0	39056	11.1	5
0	39057	11.1	3
0	39058	11.1	5
0	39059	11.1	8
0	39060	11.1	5
0	39061	11.1	3
0	39062	11.1	5
0	39063	11.1	3
0	39064	11.1	1
0	39065	11.1	1
0	39066	11.1	3
0	39067	11.1	5
0	39068	11.1	3
0	39069	11.1	5
0	39070	11.1	8
0	39071	11.1	5
0	39072	11.1	3
0	39073	11.1	5
0	39074	11.1	3
0	39075	11.1	1
0	39076	11.1	1
0	39459	11.15	3
0	39460	11.15	5
0	39461	11.15	3
0	39462	11.15	5
0	39463	11.15	8
0	39464	11.15	5
0	39465	11.15	3
0	39466	11.15	5
0	39467	11.15	3
0	39468	11.15	1
0	39469	11.15	1
0	39760	11.2	3
0	39761	11.2	5
0	39762	11.2	3
0	39763	11.2	5
0	39764	11.2	8
0	39765	11.2	5
0	39766	11.2	3
0	39767	11.2	5
0	39768	11.2	3
0	39769	11.2	1
0	39770	11.2	1
0	39771	11.2	3
0	39772	11.2	5
0	39773	11.2	3
0	39774	11.2	5
0	39775	11.2	8
0	39776	11.2	5
0	39777	11.2	3
0	39778	11.2	5
0	39779	11.2	3
0	39780	11.2	1
0	39781	11.2	1
0	40096	11.25	3
0	40097	11.25	5
0	40098	11.25	3
0	40099	11.25	5
0	40100	11.25	8
0	40101	11.25	5
0	40102	11.25	3
0	40103	11.25	5
0	40104	11.25	3
0	40105	11.25	1
0	40106	11.25	1
0	40274	11.3	3
0	40275	11.3	5
0	40276	11.3	3
0	40277	11.3	5
0	40278	11.3	8
0	40279	11.3	5
0	40280	11.3	3
0	40281	11.3	5
0	40282	11.3	3
0	40283	11.3	1
0	40284	11.3	1
0	40285	11.3	3
0	40286	11.3	5
0	40287	11.3	3
0	40288	11.3	5
0	40289	11.3	8
0	40290	11.3	5
0	40291	11.3	3
0	40292	11.3	5
0	40293	11.3	3
0	40294	11.3	1
0	40295	11.3	1
0	40484	11.35	3
0	40485	11.35	5
0	40486	11.35	3
0	40487	11.35	5
0	40488	11.35	8
0	40489	11.35	5
0	40490	11.35	3
0	40491	11.35	5
0	40492	11.35	3
0	40493	11.35	1
0	40494	11.35	1
0	40663	11.4	3
0	40664	11.4	5
0	40665	11.4	3
0	40666	11.4	5
0	40667	11.4	8
0	40668	11.4	5
0	40669	11.4	3
0	40670	11.4	5
0	40671	11.4	3
0	40672	11.4	1
0	40673	11.4	1
0	40674	11.4	3
0	40675	11.4	5
0	40676	11.4	3
0	40677	11.4	5
0	40678	11.4	8
0	40679	11.4	5
0	40680	11.4	3
0	40681	11.4	5
0	40682	11.4	3
0	40683	11.4	1
0	40684	11.4	1
0	40854	11.45	3
0	40855	11.45	5
0	40856	11.45	3
0	40857	11.45	5
0	40858	11.45	8
0	40859	11.45	5
0	40860	11.45	3
0	40861	11.45	5
0	40862	11.45	3
0	40863	11.45	1
0	40864	11.45	1
0	40976	11.5	3
0	40977	11.5	5
0	40978	11.5	3
0	40979	11.5	5
0	40980	11.5	8
0	40981	11.5	5
0	40982	11.5	3
0	40983	11.5	5
0	40984	11.5	3
0	40985	11.5	1
0	40986	11.5	1
0	40987	11.5	3
0	40988	11.5	5
0	40989	11.5	3
0	40990	11.5	5
0	40991	11.5	8
0	40992	11.5	5
0	40993	11.5	3
0	40994	11.5	5
0	40995	11.5	3
0	40996	11.5	1
0	40997	11.5	1
0	41212	11.55	3
0	41213	11.55	5
0	41214	11.55	3
0	41215	11.55	5
0	41216	11.55	8
0	41217	11.55	5
0	41218	11.55	3
0	41219	11.55	5
0	41220	11.55	3
0	41221	11.55	1
0	41222	11.55	1
0	41644	11.6	3
0	41645	11.6	5
0	41646	11.6	3
0	41647	11.6	5
0	41648	11.6	8
0	41649	11.6	5
0	41650	11.6	3
0	41651	11.6	5
0	41652	11.6	3
0	41653	11.6	1
0	41654	11.6	1
0	41655	11.6	3
0	41656	11.6	5
0	41657	11.6	3
0	41658	11.6	5
0	41659	11.6	8
0	41660	11.6	5
0	41661	11.6	3
0	41662	11.6	5
0	41663	11.6	3
0	41664	11.6	1
0	41665	11.6	1
0	41916	11.65	3
0	41917	11.65	5
0	41918	11.65	3
0	41919	11.65	5
0	41920	11.65	8
0	41921	11.65	5
0	41922	11.65	3
0	41923	11.65	5
0	41924	11.65	3
0	41925	11.65	1
0	41926	11.65	1
0	42141	11.7	3
0	42142	11.7	5
0	42143	11.7	3
0	42144	11.7	5
0	42145	11.7	8
0	42146	11.7	5
0	42147	11.7	3
0	42148	11.7	5
0	42149	11.7	3
0	42150	11.7	1
0	42151	11.7	1
0	42152	11.7	3
0	42153	11.7	5
0	42154	11.7	3
0	42155	11.7	5
0	42156	11.7	8
0	42157	11.7	5
0	42158	11.7	3
0	42159	11.7	5
0	42160	11.7	3
0	42161	11.7	1
0	42162	11.7	1
0	42429	11.75	3
0	42430	11.75	5
0	42431	11.75	3
0	42432	11.75	5
0	42433	11.75	8
0	42434	11.75	5
0	42435	11.75	3
0	42436	11.75	5
0	42437	11.75	3
0	42438	11.75	1
0	42439	11.75	1
0	42551	11.8	3
0	42552	11.8	5
0	42553	11.8	3
0	42554	11.8	5
0	42555	11.8	8
0	42556	11.8	5
0	42557	11.8	3
0	42558	11.8	5
0	42559	11.8	3
0	42560	11.8	1
0	42561	11.8	1
0	42562	11.8	3
0	42563	11.8	5
0	42564	11.8	3
0	42565	11.8	5
0	42566	11.8	8
0	42567	11.8	5
0	42568	11.8	3
0	42569	11.8	5
0	42570	11.8	3
0	42571	11.8	1
0	42572	11.8	1
0	42706	11.85	3
0	42707	11.85	5
0	42708	11.85	3
0	42709	11.85	5
0	42710	11.85	8
0	42711	11.85	5
0	42712	11.85	3
0	42713	11.85	5
0	42714	11.85	3
0	42715	11.85	1
0	42716	11.85	1
0	42828	11.9	3
0	42829	11.9	5
0	42830	11.9	3
0	42831	11.9	5
0	42832	11.9	8
0	42833	11.9	5
0	42834	11.9	3
0	42835	11.9	5
0	42836	11.9	3
0	42837	11.9	1
0	42838	11.9	1
0	42839	11.9	3
0	42840	11.9	5
0	42841	11.9	3
0	42842	11.9	5
0	42843	11.9	8
0	42844	11.9	5
0	42845	11.9	3
0	42846	11.9	5
0	42847	11.9	3
0	42848	11.9	1
0	42849	11.9	1
0	42965	11.95	3
0	42966	11.95	5
0	42967	11.95	3
0	42968	11.95	5
0	42969	11.95	8
0	42970	11.95	5
0	42971	11.95	3
0	42972	11.95	5
0	42973	11.95	3
0	42974	11.95	1
0	42975	11.95	1
0	43098	12	3
0	43099	12	5
0	43100	12	3
0	43101	12	5
0	43102	12	8
0	43103	12	5
0	43104	12	3
0	43105	12	5
0	43106	12	3
0	43107	12	1
0	43108	12	1
0	43109	12	3
0	43110	12	5
0	43111	12	3
0	43112	12	5
0	43113	12	8
0	43114	12	5
0	43115	12	3
0	43116	12	5
0	43117	12	3
0	43118	12	1
0	43119	12	1
0	43253	12.05	3
0	43254	12.05	5
0	43255	12.05	3
0	43256	12.05	5
0	43257	12.05	8
0	43258	12.05	5
0	43259	12.05	3
0	43260	12.05	5
0	43261	12.05	3
0	43262	12.05	1
0	43263	12.05	1
0	43558	12.1	3
0	43559	12.1	5
0	43560	12.1	3
0	43561	12.1	5
0	43562	12.1	8
0	43563	12.1	5
0	43564	12.1	3
0	43565	12.1	5
0	43566	12.1	3
0	43567	12.1	1
0	43568	12.1	1
0	43569	12.1	3
0	43570	12.1	5
0	43571	12.1	3
0	43572	12.1	5
0	43573	12.1	8
0	43574	12.1	5
0	43575	12.1	3
0	43576	12.1	5
0	43577	12.1	3
0	43578	12.1	1
0	43579	12.1	1
0	44027	12.15	3
0	44028	12.15	5
0	44029	12.15	3
0	44030	12.15	5
0	44031	12.15	8
0	44032	12.15	5
0	44033	12.15	3
0	44034	12.15	5
0	44035	12.15	3
0	44036	12.15	1
0	44037	12.15	1
0	44295	12.2	3
0	44296	12.2	5
0	44297	12.2	3
0	44298	12.2	5
0	44299	12.2	8
0	44300	12.2	5
0	44301	12.2	3
0	44302	12.2	5
0	44303	12.2	3
0	44304	12.2	1
0	44305	12.2	1
0	44306	12.2	3
0	44307	12.2	5
0	44308	12.2	3
0	44309	12.2	5
0	44310	12.2	8
0	44311	12.2	5
0	44312	12.2	3
0	44313	12.2	5
0	44314	12.2	3
0	44315	12.2	1
0	44316	12.2	1
0	44597	12.25	3
0	44598	12.25	5
0	44599	12.25	3
0	44600	12.25	5
0	44601	12.25	8
0	44602	12.25	5
0	44603	12.25	3
0	44604	12.25	5
0	44605	12.25	3
0	44606	12.25	1
0	44607	12.25	1
0	44886	12.3	3
0	44887	12.3	5
0	44888	12.3	3
0	44889	12.3	5
0	44890	12.3	8
0	44891	12.3	5
0	44892	12.3	3
0	44893	12.3	5
0	44894	12.3	3
0	44895	12.3	1
0	44896	12.3	1
0	44897	12.3	3
0	44898	12.3	5
0	44899	12.3	3
0	44900	12.3	5
0	44901	12.3	8
0	44902	12.3	5
0	44903	12.3	3
0	44904	12.3	5
0	44905	12.3	3
0	44906	12.3	1
0	44907	12.3	1
0	45082	12.35	3
0	45083	12.35	5
0	45084	12.35	3
0	45085	12.35	5
0	45086	12.35	8
0	45087	12.35	5
0	45088	12.35	3
0	45089	12.35	5
0	45090	12.35	3
0	45091	12.35	1
0	45092	12.35	1
0	45289	12.4	3
0	45290	12.4	5
0	45291	12.4	3
0	45292	12.4	5
0	45293	12.4	8
0	45294	12.4	5
0	45295	12.4	3
0	45296	12.4	5
0	45297	12.4	3
0	45298	12.4	1
0	45299	12.4	1
0	45300	12.4	3
0	45301	12.4	5
0	45302	12.4	3
0	45303	12.4	5
0	45304	12.4	8
0	45305	12.4	5
0	45306	12.4	3
0	45307	12.4	5
0	45308	12.4	3
0	45309	12.4	1
0	45310	12.4	1
0	45503	12.45	3
0	45504	12.45	5
0	45505	12.45	3
0	45506	12.45	5
0	45507	12.45	8
0	45508	12.45	5
0	45509	12.45	3
0	45510	12.45	5
0	45511	12.45	3
0	45512	12.45	1
0	45513	12.45	1
0	45605	12.5	3
0	45606	12.5	5
0	45607	12.5	3
0	45608	12.5	5
0	45609	12.5	8
0	45610	12.5	5
0	45611	12.5	3
0	45612	12.5	5
0	45613	12.5	3
0	45614	12.5	1
0	45615	12.5	1
0	45616	12.5	3
0	45617	12.5	5
0	45618	12.5	3
0	45619	12.5	5
0	45620	12.5	8
0	45621	12.5	5
0	45622	12.5	3
0	45623	12.5	5
0	45624	12.5	3
0	45625	12.5	1
0	45626	12.5	1
0	45754	12.55	3
0	45755	12.55	5
0	45756	12.55	3
0	45757	12.55	5
0	45758	12.55	8
0	45759	12.55	5
0	45760	12.55	3
0	45761	12.55	5
0	45762	12.55	3
0	45763	12.55	1
0	45764	12.55	1
0	45876	12.6	3
0	45877	12.6	5
0	45878	12.6	3
0	45879	12.6	5
0	45880	12.6	8
0	45881	12.6	5
0	45882	12.6	3
0	45883	12.6	5
0	45884	12.6	3
0	45885	12.6	1
0	45886	12.6	1
0	45887	12.6	3
0	45888	12.6	5
0	45889	12.6	3
0	45890	12.6	5
0	45891	12.6	8
0	45892	12.6	5
0	45893	12.6	3
0	45894	12.6	5
0	45895	12.6	3
0	45896	12.6	1
0	45897	12.6	1
0	46160	12.65	3
0	46161	12.65	5
0	46162	12.65	3
0	46163	12.65	5
0	46164	12.65	8
0	46165	12.65	5
0	46166	12.65	3
0	46167	12.65	5
0	46168	12.65	3
0	46169	12.65	1
0	46170	12.65	1
0	46470	12.7	3
0	46471	12.7	5
0	46472	12.7	3
0	46473	12.7	5
0	46474	12.7	8
0	46475	12.7	5
0	46476	12.7	3
0	46477	12.7	5
0	46478	12.7	3
0	46479	12.7	1
0	46480	12.7	1
0	46481	12.7	3
0	46482	12.7	5
0	46483	12.7	3
0	46484	12.7	5
0	46485	12.7	8
0	46486	12.7	5
0	46487	12.7	3
0	46488	12.7	5
0	46489	12.7	3
0	46490	12.7	1
0	46491	12.7	1
0	46692	12.75	3
0	46693	12.75	5
0	46694	12.75	3
0	46695	12.75	5
0	46696	12.75	8
0	46697	12.75	5
0	46698	12.75	3
0	46699	12.75	5
0	46700	12.75	3
0	46701	12.75	1
0	46702	12.75	1
0	46946	12.8	3
0	46947	12.8	5
0	46948	12.8	3
0	46949	12.8	5
0	46950	12.8	8
0	46951	12.8	5
0	46952	12.8	3
0	46953	12.8	5
0	46954	12.8	3
0	46955	12.8	1
0	46956	12.8	1
0	46957	12.8	3
0	46958	12.8	5
0	46959	12.8	3
0	46960	12.8	5
0	46961	12.8	8
0	46962	12.8	5
0	46963	12.8	3
0	46964	12.8	5
0	46965	12.8	3
0	46966	12.8	1
0	46967	12.8	1
0	47207	12.85	3
0	47208	12.85	5
0	47209	12.85	3
0	47210	12.85	5
0	47211	12.85	8
0	47212	12.85	5
0	47213	12.85	3
0	47214	12.85	5
0	47215	12.85	3
0	47216	12.85	1
0	47217	12.85	1
0	47371	12.9	3
0	47372	12.9	5
0	47373	12.9	3
0	47374	12.9	5
0	47375	12.9	8
0	47376	12.9	5
0	47377	12.9	3
0	47378	12.9	5
0	47379	12.9	3
0	47380	12.9	1
0	47381	12.9	1
0	47382	12.9	3
0	47383	12.9	5
0	47384	12.9	3
0	47385	12.9	5
0	47386	12.9	8
0	47387	12.9	5
0	47388	12.9	3
0	47389	12.9	5
0	47390	12.9	3
0	47391	12.9	1
0	47392	12.9	1
0	47526	12.95	3
0	47527	12.95	5
0	47528	12.95	3
0	47529	12.95	5
0	47530	12.95	8
0	47531	12.95	5
0	47532	12.95	3
0	47533	12.95	5
0	47534	12.95	3
0	47535	12.95	1
0	47536	12.95	1
0	47676	13	3
0	47677	13	5
0	47678	13	3
0	47679	13	5
0	47680	13	8
0	47681	13	5
0	47682	13	3
0	47683	13	5
0	47684	13	3
0	47685	13	1
0	47686	13	1
0	47687	13	3
0	47688	13	5
0	47689	13	3
0	47690	13	5
0	47691	13	8
0	47692	13	5
0	47693	13	3
0	47694	13	5
0	47695	13	3
0	47696	13	1
0	47697	13	1
0	47808	13.05	3
0	47809	13.05	5
0	47810	13.05	3
0	47811	13.05	5
0	47812	13.05	8
0	47813	13.05	5
0	47814	13.05	3
0	47815	13.05	5
0	47816	13.05	3
0	47817	13.05	1
0	47818	13.05	1
0	47941	13.1	3
0	47942	13.1	5
0	47943	13.1	3
0	47944	13.1	5
0	47945	13.1	8
0	47946	13.1	5
0	47947	13.1	3
0	47948	13.1	5
0	47949	13.1	3
0	47950	13.1	1
0	47951	13.1	1
0	47952	13.1	3
0	47953	13.1	5
0	47954	13.1	3
0	47955	13.1	5
0	47956	13.1	8
0	47957	13.1	5
0	47958	13.1	3
0	47959	13.1	5
0	47960	13.1	3
0	47961	13.1	1
0	47962	13.1	1
0	48114	13.15	3
0	48115	13.15	5
0	48116	13.15	3
0	48117	13.15	5
0	48118	13.15	8
0	48119	13.15	5
0	48120	13.15	3
0	48121	13.15	5
0	48122	13.15	3
0	48123	13.15	1
0	48124	13.15	1
0	48344	13.2	3
0	48345	13.2	5
0	48346	13.2	3
0	48347	13.2	5
0	48348	13.2	8
0	48349	13.2	5
0	48350	13.2	3
0	48351	13.2	5
0	48352	13.2	3
0	48353	13.2	1
0	48354	13.2	1
0	48355	13.2	3
0	48356	13.2	5
0	48357	13.2	3
0	48358	13.2	5
0	48359	13.2	8
0	48360	13.2	5
0	48361	13.2	3
0	48362	13.2	5
0	48363	13.2	3
0	48364	13.2	1
0	48365	13.2	1
0	48659	13.25	3
0	48660	13.25	5
0	48661	13.25	3
0	48662	13.25	5
0	48663	13.25	8
0	48664	13.25	5
0	48665	13.25	3
0	48666	13.25	5
0	48667	13.25	3
0	48668	13.25	1
0	48669	13.25	1
0	48828	13.3	3
0	48829	13.3	5
0	48830	13.3	3
0	48831	13.3	5
0	48832	13.3	8
0	48833	13.3	5
0	48834	13.3	3
0	48835	13.3	5
0	48836	13.3	3
0	48837	13.3	1
0	48838	13.3	1
0	48839	13.3	3
0	48840	13.3	5
0	48841	13.3	3
0	48842	13.3	5
0	48843	13.3	8
0	48844	13.3	5
0	48845	13.3	3
0	48846	13.3	5
0	48847	13.3	3
0	48848	13.3	1
0	48849	13.3	1
0	49074	13.35	3
0	49075	13.35	5
0	49076	13.35	3
0	49077	13.35	5
0	49078	13.35	8
0	49079	13.35	5
0	49080	13.35	3
0	49081	13.35	5
0	49082	13.35	3
0	49083	13.35	1
0	49084	13.35	1
0	49247	13.4	3
0	49248	13.4	5
0	49249	13.4	3
0	49250	13.4	5
0	49251	13.4	8
0	49252	13.4	5
0	49253	13.4	3
0	49254	13.4	5
0	49255	13.4	3
0	49256	13.4	1
0	49257	13.4	1
0	49258	13.4	3
0	49259	13.4	5
0	49260	13.4	3
0	49261	13.4	5
0	49262	13.4	8
0	49263	13.4	5
0	49264	13.4	3
0	49265	13.4	5
0	49266	13.4	3
0	49267	13.4	1
0	49268	13.4	1
0	49402	13.45	3
0	49403	13.45	5
0	49404	13.45	3
0	49405	13.45	5
0	49406	13.45	8
0	49407	13.45	5
0	49408	13.45	3
0	49409	13.45	5
0	49410	13.45	3
0	49411	13.45	1
0	49412	13.45	1
0	49524	13.5	3
0	49525	13.5	5
0	49526	13.5	3
0	49527	13.5	5
0	49528	13.5	8
0	49529	13.5	5
0	49530	13.5	3
0	49531	13.5	5
0	49532	13.5	3
0	49533	13.5	1
0	49534	13.5	1
0	49535	13.5	3
0	49536	13.5	5
0	49537	13.5	3
0	49538	13.5	5
0	49539	13.5	8
0	49540	13.5	5
0	49541	13.5	3
0	49542	13.5	5
0	49543	13.5	3
0	49544	13.5	1
0	49545	13.5	1
0	49707	13.55	3
0	49708	13.55	5
0	49709	13.55	3
0	49710	13.55	5
0	49711	13.55	8
0	49712	13.55	5
0	49713	13.55	3
0	49714	13.55	5
0	49715	13.55	3
0	49716	13.55	1
0	49717	13.55	1
0	49806	13.6	3
0	49807	13.6	5
0	49808	13.6	3
0	49809	13.6	5
0	49810	13.6	8
0	49811	13.6	5
0	49812	13.6	3
0	49813	13.6	5
0	49814	13.6	3
0	49815	13.6	1
0	49816	13.6	1
0	49817	13.6	3
0	49818	13.6	5
0	49819	13.6	3
0	49820	13.6	5
0	49821	13.6	8
0	49822	13.6	5
0	49823	13.6	3
0	49824	13.6	5
0	49825	13.6	3
0	49826	13.6	1
0	49827	13.6	1
0	49955	13.65	3
0	49956	13.65	5
0	49957	13.65	3
0	49958	13.65	5
0	49959	13.65	8
0	49960	13.65	5
0	49961	13.65	3
0	49962	13.65	5
0	49963	13.65	3
0	49964	13.65	1
0	49965	13.65	1
0	50100	13.7	3
0	50101	13.7	5
0	50102	13.7	3
0	50103	13.7	5
0	50104	13.7	8
0	50105	13.7	5
0	50106	13.7	3
0	50107	13.7	5
0	50108	13.7	3
0	50109	13.7	1
0	50110	13.7	1
0	50111	13.7	3
0	50112	13.7	5
0	50113	13.7	3
0	50114	13.7	5
0	50115	13.7	8
0	50116	13.7	5
0	50117	13.7	3
0	50118	13.7	5
0	50119	13.7	3
0	50120	13.7	1
0	50121	13.7	1
0	50430	13.75	3
0	50431	13.75	5
0	50432	13.75	3
0	50433	13.75	5
0	50434	13.75	8
0	50435	13.75	5
0	50436	13.75	3
0	50437	13.75	5
0	50438	13.75	3
0	50439	13.75	1
0	50440	13.75	1
0	50770	13.8	3
0	50771	13.8	5
0	50772	13.8	3
0	50773	13.8	5
0	50774	13.8	8
0	50775	13.8	5
0	50776	13.8	3
0	50777	13.8	5
0	50778	13.8	3
0	50779	13.8	1
0	50780	13.8	1
0	50781	13.8	3
0	50782	13.8	5
0	50783	13.8	3
0	50784	13.8	5
0	50785	13.8	8
0	50786	13.8	5
0	50787	13.8	3
0	50788	13.8	5
0	50789	13.8	3
0	50790	13.8	1
0	50791	13.8	1
0	50953	13.85	3
0	50954	13.85	5
0	50955	13.85	3
0	50956	13.85	5
0	50957	13.85	8
0	50958	13.85	5
0	50959	13.85	3
0	50960	13.85	5
0	50961	13.85	3
0	50962	13.85	1
0	50963	13.85	1
0	51193	13.9	3
0	51194	13.9	5
0	51195	13.9	3
0	51196	13.9	5
0	51197	13.9	8
0	51198	13.9	5
0	51199	13.9	3
0	51200	13.9	5
0	51201	13.9	3
0	51202	13.9	1
0	51203	13.9	1
0	51204	13.9	3
0	51205	13.9	5
0	51206	13.9	3
0	51207	13.9	5
0	51208	13.9	8
0	51209	13.9	5
0	51210	13.9	3
0	51211	13.9	5
0	51212	13.9	3
0	51213	13.9	1
0	51214	13.9	1
0	51447	13.95	3
0	51448	13.95	5
0	51449	13.95	3
0	51450	13.95	5
0	51451	13.95	8
0	51452	13.95	5
0	51453	13.95	3
0	51454	13.95	5
0	51455	13.95	3
0	51456	13.95	1
0	51457	13.95	1
0	51625	14	3
0	51626	14	5
0	51627	14	3
0	51628	14	5
0	51629	14	8
0	51630	14	5
0	51631	14	3
0	51632	14	5
0	51633	14	3
0	51634	14	1
0	51635	14	1
0	51636	14	3
0	51637	14	5
0	51638	14	3
0	51639	14	5
0	51640	14	8
0	51641	14	5
0	51642	14	3
0	51643	14	5
0	51644	14	3
0	51645	14	1
0	51646	14	1
0	51803	14.05	3
0	51804	14.05	5
0	51805	14.05	3
0	51806	14.05	5
0	51807	14.05	8
0	51808	14.05	5
0	51809	14.05	3
0	51810	14.05	5
0	51811	14.05	3
0	51812	14.05	1
0	51813	14.05	1
0	51959	14.1	3
0	51960	14.1	5
0	51961	14.1	3
0	51962	14.1	5
0	51963	14.1	8
0	51964	14.1	5
0	51965	14.1	3
0	51966	14.1	5
0	51967	14.1	3
0	51968	14.1	1
0	51969	14.1	1
0	51970	14.1	3
0	51971	14.1	5
0	51972	14.1	3
0	51973	14.1	5
0	51974	14.1	8
0	51975	14.1	5
0	51976	14.1	3
0	51977	14.1	5
0	51978	14.1	3
0	51979	14.1	1
0	51980	14.1	1
0	52121	14.15	3
0	52122	14.15	5
0	52123	14.15	3
0	52124	14.15	5
0	52125	14.15	8
0	52126	14.15	5
0	52127	14.15	3
0	52128	14.15	5
0	52129	14.15	3
0	52130	14.15	1
0	52131	14.15	1
0	52237	14.2	3
0	52238	14.2	5
0	52239	14.2	3
0	52240	14.2	5
0	52241	14.2	8
0	52242	14.2	5
0	52243	14.2	3
0	52244	14.2	5
0	52245	14.2	3
0	52246	14.2	1
0	52247	14.2	1
0	52248	14.2	3
0	52249	14.2	5
0	52250	14.2	3
0	52251	14.2	5
0	52252	14.2	8
0	52253	14.2	5
0	52254	14.2	3
0	52255	14.2	5
0	52256	14.2	3
0	52257	14.2	1
0	52258	14.2	1
0	52426	14.25	3
0	52427	14.25	5
0	52428	14.25	3
0	52429	14.25	5
0	52430	14.25	8
0	52431	14.25	5
0	52432	14.25	3
0	52433	14.25	5
0	52434	14.25	3
0	52435	14.25	1
0	52436	14.25	1
0	52739	14.3	3
0	52740	14.3	5
0	52741	14.3	3
0	52742	14.3	5
0	52743	14.3	8
0	52744	14.3	5
0	52745	14.3	3
0	52746	14.3	5
0	52747	14.3	3
0	52748	14.3	1
0	52749	14.3	1
0	52750	14.3	3
0	52751	14.3	5
0	52752	14.3	3
0	52753	14.3	5
0	52754	14.3	8
0	52755	14.3	5
0	52756	14.3	3
0	52757	14.3	5
0	52758	14.3	3
0	52759	14.3	1
0	52760	14.3	1
0	53080	14.35	3
0	53081	14.35	5
0	53082	14.35	3
0	53083	14.35	5
0	53084	14.35	8
0	53085	14.35	5
0	53086	14.35	3
0	53087	14.35	5
0	53088	14.35	3
0	53089	14.35	1
0	53090	14.35	1
0	53310	14.4	3
0	53311	14.4	5
0	53312	14.4	3
0	53313	14.4	5
0	53314	14.4	8
0	53315	14.4	5
0	53316	14.4	3
0	53317	14.4	5
0	53318	14.4	3
0	53319	14.4	1
0	53320	14.4	1
0	53321	14.4	3
0	53322	14.4	5
0	53323	14.4	3
0	53324	14.4	5
0	53325	14.4	8
0	53326	14.4	5
0	53327	14.4	3
0	53328	14.4	5
0	53329	14.4	3
0	53330	14.4	1
0	53331	14.4	1
0	53628	14.45	3
0	53629	14.45	5
0	53630	14.45	3
0	53631	14.45	5
0	53632	14.45	8
0	53633	14.45	5
0	53634	14.45	3
0	53635	14.45	5
0	53636	14.45	3
0	53637	14.45	1
0	53638	14.45	1
0	53930	14.5	3
0	53931	14.5	5
0	53932	14.5	3
0	53933	14.5	5
0	53934	14.5	8
0	53935	14.5	5
0	53936	14.5	3
0	53937	14.5	5
0	53938	14.5	3
0	53939	14.5	1
0	53940	14.5	1
0	53941	14.5	3
0	53942	14.5	5
0	53943	14.5	3
0	53944	14.5	5
0	53945	14.5	8
0	53946	14.5	5
0	53947	14.5	3
0	53948	14.5	5
0	53949	14.5	3
0	53950	14.5	1
0	53951	14.5	1
0	54138	14.55	3
0	54139	14.55	5
0	54140	14.55	3
0	54141	14.55	5
0	54142	14.55	8
0	54143	14.55	5
0	54144	14.55	3
0	54145	14.55	5
0	54146	14.55	3
0	54147	14.55	1
0	54148	14.55	1
0	54348	14.6	3
0	54349	14.6	5
0	54350	14.6	3
0	54351	14.6	5
0	54352	14.6	8
0	54353	14.6	5
0	54354	14.6	3
0	54355	14.6	5
0	54356	14.6	3
0	54357	14.6	1
0	54358	14.6	1
0	54359	14.6	3
0	54360	14.6	5
0	54361	14.6	3
0	54362	14.6	5
0	54363	14.6	8
0	54364	14.6	5
0	54365	14.6	3
0	54366	14.6	5
0	54367	14.6	3
0	54368	14.6	1
0	54369	14.6	1
0	54538	14.65	3
0	54539	14.65	5
0	54540	14.65	3
0	54541	14.65	5
0	54542	14.65	8
0	54543	14.65	5
0	54544	14.65	3
0	54545	14.65	5
0	54546	14.65	3
0	54547	14.65	1
0	54548	14.65	1
0	54660	14.7	3
0	54661	14.7	5
0	54662	14.7	3
0	54663	14.7	5
0	54664	14.7	8
0	54665	14.7	5
0	54666	14.7	3
0	54667	14.7	5
0	54668	14.7	3
0	54669	14.7	1
0	54670	14.7	1
0	54671	14.7	3
0	54672	14.7	5
0	54673	14.7	3
0	54674	14.7	5
0	54675	14.7	8
0	54676	14.7	5
0	54677	14.7	3
0	54678	14.7	5
0	54679	14.7	3
0	54680	14.7	1
0	54681	14.7	1
0	54809	14.75	3
0	54810	14.75	5
0	54811	14.75	3
0	54812	14.75	5
0	54813	14.75	8
0	54814	14.75	5
0	54815	14.75	3
0	54816	14.75	5
0	54817	14.75	3
0	54818	14.75	1
0	54819	14.75	1
0	54959	14.8	3
0	54960	14.8	5
0	54961	14.8	3
0	54962	14.8	5
0	54963	14.8	8
0	54964	14.8	5
0	54965	14.8	3
0	54966	14.8	5
0	54967	14.8	3
0	54968	14.8	1
0	54969	14.8	1
0	54970	14.8	3
0	54971	14.8	5
0	54972	14.8	3
0	54973	14.8	5
0	54974	14.8	8
0	54975	14.8	5
0	54976	14.8	3
0	54977	14.8	5
0	54978	14.8	3
0	54979	14.8	1
0	54980	14.8	1
0	55234	14.85	3
0	55235	14.85	5
0	55236	14.85	3
0	55237	14.85	5
0	55238	14.85	8
0	55239	14.85	5
0	55240	14.85	3
0	55241	14.85	5
0	55242	14.85	3
0	55243	14.85	1
0	55244	14.85	1
0	55442	14.9	3
0	55443	14.9	5
0	55444	14.9	3
0	55445	14.9	5
0	55446	14.9	8
0	55447	14.9	5
0	55448	14.9	3
0	55449	14.9	5
0	55450	14.9	3
0	55451	14.9	1
0	55452	14.9	1
0	55453	14.9	3
0	55454	14.9	5
0	55455	14.9	3
0	55456	14.9	5
0	55457	14.9	8
0	55458	14.9	5
0	55459	14.9	3
0	55460	14.9	5
0	55461	14.9	3
0	55462	14.9	1
0	55463	14.9	1
0	55648	14.95	3
0	55649	14.95	5
0	55650	14.95	3
0	55651	14.95	5
0	55652	14.95	8
0	55653	14.95	5
0	55654	14.95	3
0	55655	14.95	5
0	55656	14.95	3
0	55657	14.95	1
0	55658	14.95	1
0	55881	15	3
0	55882	15	5
0	55883	15	3
0	55884	15	5
0	55885	15	8
0	55886	15	5
0	55887	15	3
0	55888	15	5
0	55889	15	3
0	55890	15	1
0	55891	15	1
0	55892	15	3
0	55893	15	5
0	55894	15	3
0	55895	15	5
0	55896	15	8
0	55897	15	5
0	55898	15	3
0	55899	15	5
0	55900	15	3
0	55901	15	1
0	55902	15	1
0	56085	15.05	3
0	56086	15.05	5
0	56087	15.05	3
0	56088	15.05	5
0	56089	15.05	8
0	56090	15.05	5
0	56091	15.05	3
0	56092	15.05	5
0	56093	15.05	3
0	56094	15.05	1
0	56095	15.05	1
0	56241	15.1	3
0	56242	15.1	5
0	56243	15.1	3
0	56244	15.1	5
0	56245	15.1	8
0	56246	15.1	5
0	56247	15.1	3
0	56248	15.1	5
0	56249	15.1	3
0	56250	15.1	1
0	56251	15.1	1
0	56252	15.1	3
0	56253	15.1	5
0	56254	15.1	3
0	56255	15.1	5
0	56256	15.1	8
0	56257	15.1	5
0	56258	15.1	3
0	56259	15.1	5
0	56260	15.1	3
0	56261	15.1	1
0	56262	15.1	1
0	56437	15.15	3
0	56438	15.15	5
0	56439	15.15	3
0	56440	15.15	5
0	56441	15.15	8
0	56442	15.15	5
0	56443	15.15	3
0	56444	15.15	5
0	56445	15.15	3
0	56446	15.15	1
0	56447	15.15	1
0	56559	15.2	3
0	56560	15.2	5
0	56561	15.2	3
0	56562	15.2	5
0	56563	15.2	8
0	56564	15.2	5
0	56565	15.2	3
0	56566	15.2	5
0	56567	15.2	3
0	56568	15.2	1
0	56569	15.2	1
0	56570	15.2	3
0	56571	15.2	5
0	56572	15.2	3
0	56573	15.2	5
0	56574	15.2	8
0	56575	15.2	5
0	56576	15.2	3
0	56577	15.2	5
0	56578	15.2	3
0	56579	15.2	1
0	56580	15.2	1
0	56714	15.25	3
0	56715	15.25	5
0	56716	15.25	3
0	56717	15.25	5
0	56718	15.25	8
0	56719	15.25	5
0	56720	15.25	3
0	56721	15.25	5
0	56722	15.25	3
0	56723	15.25	1
0	56724	15.25	1
0	56836	15.3	3
0	56837	15.3	5
0	56838	15.3	3
0	56839	15.3	5
0	56840	15.3	8
0	56841	15.3	5
0	56842	15.3	3
0	56843	15.3	5
0	56844	15.3	3
0	56845	15.3	1
0	56846	15.3	1
0	56847	15.3	3
0	56848	15.3	5
0	56849	15.3	3
0	56850	15.3	5
0	56851	15.3	8
0	56852	15.3	5
0	56853	15.3	3
0	56854	15.3	5
0	56855	15.3	3
0	56856	15.3	1
0	56857	15.3	1
0	57008	15.35	3
0	57009	15.35	5
0	57010	15.35	3
0	57011	15.35	5
0	57012	15.35	8
0	57013	15.35	5
0	57014	15.35	3
0	57015	15.35	5
0	57016	15.35	3
0	57017	15.35	1
0	57018	15.35	1
0	57268	15.4	3
0	57269	15.4	5
0	57270	15.4	3
0	57271	15.4	5
0	57272	15.4	8
0	57273	15.4	5
0	57274	15.4	3
0	57275	15.4	5
0	57276	15.4	3
0	57277	15.4	1
0	57278	15.4	1
0	57279	15.4	3
0	57280	15.4	5
0	57281	15.4	3
0	57282	15.4	5
0	57283	15.4	8
0	57284	15.4	5
0	57285	15.4	3
0	57286	15.4	5
0	57287	15.4	3
0	57288	15.4	1
0	57289	15.4	1
0	57544	15.45	3
0	57545	15.45	5
0	57546	15.45	3
0	57547	15.45	5
0	57548	15.45	8
0	57549	15.45	5
0	57550	15.45	3
0	57551	15.45	5
0	57552	15.45	3
0	57553	15.45	1
0	57554	15.45	1
0	57727	15.5	3
0	57728	15.5	5
0	57729	15.5	3
0	57730	15.5	5
0	57731	15.5	8
0	57732	15.5	5
0	57733	15.5	3
0	57734	15.5	5
0	57735	15.5	3
0	57736	15.5	1
0	57737	15.5	1
0	57738	15.5	3
0	57739	15.5	5
0	57740	15.5	3
0	57741	15.5	5
0	57742	15.5	8
0	57743	15.5	5
0	57744	15.5	3
0	57745	15.5	5
0	57746	15.5	3
0	57747	15.5	1
0	57748	15.5	1
0	57983	15.55	3
0	57984	15.55	5
0	57985	15.55	3
0	57986	15.55	5
0	57987	15.55	8
0	57988	15.55	5
0	57989	15.55	3
0	57990	15.55	5
0	57991	15.55	3
0	57992	15.55	1
0	57993	15.55	1
0	58178	15.6	3
0	58179	15.6	5
0	58180	15.6	3
0	58181	15.6	5
0	58182	15.6	8
0	58183	15.6	5
0	58184	15.6	3
0	58185	15.6	5
0	58186	15.6	3
0	58187	15.6	1
0	58188	15.6	1
0	58189	15.6	3
0	58190	15.6	5
0	58191	15.6	3
0	58192	15.6	5
0	58193	15.6	8
0	58194	15.6	5
0	58195	15.6	3
0	58196	15.6	5
0	58197	15.6	3
0	58198	15.6	1
0	58199	15.6	1
0	58350	15.65	3
0	58351	15.65	5
0	58352	15.65	3
0	58353	15.65	5
0	58354	15.65	8
0	58355	15.65	5
0	58356	15.65	3
0	58357	15.65	5
0	58358	15.65	3
0	58359	15.65	1
0	58360	15.65	1
0	58489	15.7	3
0	58490	15.7	5
0	58491	15.7	3
0	58492	15.7	5
0	58493	15.7	8
0	58494	15.7	5
0	58495	15.7	3
0	58496	15.7	5
0	58497	15.7	3
0	58498	15.7	1
0	58499	15.7	1
0	58500	15.7	3
0	58501	15.7	5
0	58502	15.7	3
0	58503	15.7	5
0	58504	15.7	8
0	58505	15.7	5
0	58506	15.7	3
0	58507	15.7	5
0	58508	15.7	3
0	58509	15.7	1
0	58510	15.7	1
0	58644	15.75	3
0	58645	15.75	5
0	58646	15.75	3
0	58647	15.75	5
0	58648	15.75	8
0	58649	15.75	5
0	58650	15.75	3
0	58651	15.75	5
0	58652	15.75	3
0	58653	15.75	1
0	58654	15.75	1
0	58766	15.8	3
0	58767	15.8	5
0	58768	15.8	3
0	58769	15.8	5
0	58770	15.8	8
0	58771	15.8	5
0	58772	15.8	3
0	58773	15.8	5
0	58774	15.8	3
0	58775	15.8	1
0	58776	15.8	1
0	58777	15.8	3
0	58778	15.8	5
0	58779	15.8	3
0	58780	15.8	5
0	58781	15.8	8
0	58782	15.8	5
0	58783	15.8	3
0	58784	15.8	5
0	58785	15.8	3
0	58786	15.8	1
0	58787	15.8	1
0	58938	15.85	3
0	58939	15.85	5
0	58940	15.85	3
0	58941	15.85	5
0	58942	15.85	8
0	58943	15.85	5
0	58944	15.85	3
0	58945	15.85	5
0	58946	15.85	3
0	58947	15.85	1
0	58948	15.85	1
0	59065	15.9	3
0	59066	15.9	5
0	59067	15.9	3
0	59068	15.9	5
0	59069	15.9	8
0	59070	15.9	5
0	59071	15.9	3
0	59072	15.9	5
0	59073	15.9	3
0	59074	15.9	1
0	59075	15.9	1
0	59076	15.9	3
0	59077	15.9	5
0	59078	15.9	3
0	59079	15.9	5
0	59080	15.9	8
0	59081	15.9	5
0	59082	15.9	3
0	59083	15.9	5
0	59084	15.9	3
0	59085	15.9	1
0	59086	15.9	1
0	59317	15.95	3
0	59318	15.95	5
0	59319	15.95	3
0	59320	15.95	5
0	59321	15.95	8
0	59322	15.95	5
0	59323	15.95	3
0	59324	15.95	5
0	59325	15.95	3
0	59326	15.95	1
0	59327	15.95	1
0	59585	16	3
0	59586	16	5
0	59587	16	3
0	59588	16	5
0	59589	16	8
0	59590	16	5
0	59591	16	3
0	59592	16	5
0	59593	16	3
0	59594	16	1
0	59595	16	1
0	59596	16	3
0	59597	16	5
0	59598	16	3
0	59599	16	5
0	59600	16	8
0	59601	16	5
0	59602	16	3
0	59603	16	5
0	59604	16	3
0	59605	16	1
0	59606	16	1
0	59804	16.05	3
0	59805	16.05	5
0	59806	16.05	3
0	59807	16.05	5
0	59808	16.05	8
0	59809	16.05	5
0	59810	16.05	3
0	59811	16.05	5
0	59812	16.05	3
0	59813	16.05	1
0	59814	16.05	1
0	60125	16.1	3
0	60126	16.1	5
0	60127	16.1	3
0	60128	16.1	5
0	60129	16.1	8
0	60130	16.1	5
0	60131	16.1	3
0	60132	16.1	5
0	60133	16.1	3
0	60134	16.1	1
0	60135	16.1	1
0	60136	16.1	3
0	60137	16.1	5
0	60138	16.1	3
0	60139	16.1	5
0	60140	16.1	8
0	60141	16.1	5
0	60142	16.1	3
0	60143	16.1	5
0	60144	16.1	3
0	60145	16.1	1
0	60146	16.1	1
0	60370	16.15	3
0	60371	16.15	5
0	60372	16.15	3
0	60373	16.15	5
0	60374	16.15	8
0	60375	16.15	5
0	60376	16.15	3
0	60377	16.15	5
[...]
3	507713	133.33396899642	269733
3	507740	133.34780899642	269874
3	507860	133.36164899642	270015
3	507906	133.383626728067	270156
3	507925	133.397466728067	270297
3	508071	133.411306728067	270438
3	508090	133.425146728067	270579
3	508662	133.583626728067	270720
3	509629	133.843584192201	270861
3	509954	133.933626728067	271002
3	510698	134.133626728067	271143
3	510726	134.147466728067	271284
3	511115	134.23342031478	271425
3	511350	134.298426728067	271566
3	511671	134.393584192201	271707
3	511869	134.433626728067	271848
3	512034	134.493584192201	271989
3	513184	134.78396899642	272130
3	513198	134.79780899642	272271
3	513530	134.85316899642	272412
3	513547	134.88084899642	272553
3	513566	134.89468899642	272694
3	513718	134.90852899642	272835
3	513789	134.92236899642	272976
3	513820	134.93396899642	273117
3	513840	134.93620899642	273258
3	513862	134.94780899642	273399
3	513976	134.95004899642	273540
3	514060	134.97548899642	273681
3	514109	134.98932899642	273822
3	514993	135.233626728067	273963
3	515429	135.33342031478	274104
3	515644	135.398426728067	274245
3	516025	135.48396899642	274386
3	516048	135.493584192201	274527
3	516058	135.49780899642	274668
3	516213	135.51164899642	274809
3	516400	135.583626728067	274950
3	517672	135.908384192201	275091
3	517732	135.922224192201	275232
3	518146	136.03396899642	275373
3	518174	136.04780899642	275514
3	518335	136.083626728067	275655
3	518538	136.133626728067	275796
3	518557	136.147466728067	275937
3	518679	136.161306728067	276078
3	519270	136.333626728067	276219
3	519707	136.43342031478	276360
3	519917	136.498426728067	276501
3	520290	136.593584192201	276642
3	520300	136.59780899642	276783
3	520507	136.633626728067	276924
3	522241	137.143584192201	277065
3	522406	137.183626728067	277206
3	522598	137.233626728067	277347
3	523633	137.53342031478	277488
3	523816	137.598426728067	277629
3	524507	137.798426728067	277770
3	524659	137.812266728067	277911
3	525788	138.148426728067	278052
3	526142	138.233626728067	278193
3	526335	138.283626728067	278334
3	526563	138.333626728067	278475
3	526565	138.333626728067	278616
3	526581	138.347466728067	278757
3	526703	138.361306728067	278898
3	527075	138.483626728067	279039
3	527094	138.497466728067	279180
3	527352	138.53396899642	279321
3	527554	138.57548899642	279462
3	527573	138.58932899642	279603
3	527729	138.60316899642	279744
3	527788	138.61700899642	279885
3	527856	138.63342031478	280026
3	527875	138.64468899642	280167
3	528003	138.65852899642	280308
3	528100	138.68620899642	280449
3	528260	138.71388899642	280590
3	528318	138.72772899642	280731
3	528700	138.833626728067	280872
3	528890	138.898224192201	281013
3	529047	138.912064192201	281154
3	529624	139.08396899642	281295
3	529819	139.11164899642	281436
3	529901	139.12548899642	281577
3	530035	139.15316899642	281718
3	530155	139.18342031478	281859
3	530408	139.248426728067	282000
3	530874	139.383626728067	282141
3	531102	139.448224192201	282282
3	531110	139.448272534095	282423
3	531231	139.462064192201	282564
3	533076	139.998224192201	282705
3	533644	140.133626728067	282846
3	533651	140.133730596859	282987
3	533681	140.147466728067	283128
3	533688	140.147570596859	283269
3	534241	140.28342031478	283410
3	534902	140.483626728067	283551
3	535151	140.548224192201	283692
3	535159	140.548272534095	283833
3	535703	140.683626728067	283974
3	535717	140.688456785734	284115
3	535872	140.702296785734	284256
3	535901	140.716136785734	284397
3	535929	140.729976785734	284538
3	535948	140.743816785734	284679
3	536106	140.771496785734	284820
3	536597	140.898426728067	284961
3	537299	141.098224192201	285102
3	537874	141.233626728067	285243
3	537882	141.233730596859	285384
3	537908	141.247466728067	285525
3	538465	141.38342031478	285666
3	538710	141.448426728067	285807
3	539262	141.583626728067	285948
3	539491	141.633626728067	286089
3	539493	141.633626728067	286230
3	539711	141.69780899642	286371
3	539866	141.71164899642	286512
3	539927	141.72548899642	286653
3	539946	141.73932899642	286794
3	540065	141.75316899642	286935
3	540111	141.76700899642	287076
3	540279	141.80852899642	287217
3	540298	141.82236899642	287358
3	540312	141.83620899642	287499
3	541466	142.133626728067	287640
3	541672	142.183626728067	287781
3	541674	142.183626728067	287922
3	541698	142.197466728067	288063
3	542223	142.333626728067	288204
3	542225	142.333626728067	288345
3	542816	142.48342031478	288486
3	542992	142.533626728067	288627
3	545184	143.13396899642	288768
3	545224	143.14780899642	288909
3	545348	143.16164899642	289050
3	545410	143.18932899642	289191
3	545565	143.20316899642	289332
3	545600	143.21700899642	289473
3	545656	143.240035000754	289614
3	545859	143.283626728067	289755
3	545861	143.283626728067	289896
3	545882	143.297466728067	290037
3	546420	143.433626728067	290178
3	546422	143.433626728067	290319
3	547070	143.58342031478	290460
3	547246	143.633626728067	290601
3	548042	143.833626728067	290742
3	549105	144.13342031478	290883
3	549248	144.183626728067	291024
3	549844	144.333626728067	291165
3	550040	144.383626728067	291306
3	550042	144.383626728067	291447
3	550562	144.533626728067	291588
3	551876	144.89876899642	291729
3	552033	144.91260899642	291870
3	552091	144.92644899642	292011
3	552105	144.933841530515	292152
3	552124	144.94028899642	292293
3	552241	144.95412899642	292434
3	552279	144.96796899642	292575
3	552456	145.00948899642	292716
3	552520	145.02332899642	292857
3	552714	145.083626728067	292998
3	553415	145.23342031478	293139
3	553426	145.233626728067	293280
3	553650	145.283626728067	293421
3	553678	145.288456785734	293562
3	553856	145.302296785734	293703
3	553911	145.329976785734	293844
3	554054	145.357656785734	293985
3	554385	145.433626728067	294126
3	554533	145.46260899642	294267
3	554598	145.47644899642	294408
3	554612	145.483626728067	294549
3	554622	145.483841530515	294690
3	554649	145.49028899642	294831
3	554804	145.50412899642	294972
3	554847	145.51796899642	295113
3	554875	145.53180899642	295254
3	554894	145.54564899642	295395
3	555020	145.55948899642	295536
3	555304	145.633626728067	295677
3	556153	145.838456785734	295818
3	556277	145.852296785734	295959
3	556299	145.866136785734	296100
3	556325	145.879976785734	296241
3	556755	145.983626728067	296382
3	556976	146.033626728067	296523
3	557466	146.183626728067	296664
3	558099	146.33342031478	296805
3	558110	146.333626728067	296946
3	558293	146.398426728067	297087
3	558866	146.533626728067	297228
3	559062	146.583626728067	297369
3	559064	146.583626728067	297510
3	561012	147.133626728067	297651
3	561014	147.133626728067	297792
3	561035	147.147466728067	297933
3	562146	147.43342031478	298074
3	562157	147.433626728067	298215
3	562344	147.498426728067	298356
3	563075	147.683626728067	298497
3	563094	147.697466728067	298638
3	564586	148.083626728067	298779
3	565025	148.183626728067	298920
3	565043	148.197466728067	299061
3	565223	148.233626728067	299202
3	566288	148.53342031478	299343
3	566316	148.543726529761	299484
3	566433	148.557566529761	299625
3	566473	148.571406529761	299766
3	566510	148.585246529761	299907
3	566529	148.598426728067	300048
3	566540	148.599086529761	300189
3	566703	148.612926529761	300330
3	566737	148.626766529761	300471
3	566756	148.640606529761	300612
3	567801	148.93396899642	300753
3	567820	148.94780899642	300894
3	567940	148.96164899642	301035
3	567954	148.97548899642	301176
3	567973	148.98932899642	301317
3	568160	149.01700899642	301458
3	568634	149.148426728067	301599
3	569173	149.283626728067	301740
3	569175	149.283626728067	301881
3	569203	149.297466728067	302022
3	569424	149.333653456134	302163
3	569452	149.347493456134	302304
3	569572	149.361333456134	302445
3	570279	149.583626728067	302586
3	570297	149.597466728067	302727
3	570564	149.63342031478	302868
3	572671	150.233626728067	303009
3	572693	150.247466728067	303150
3	574426	150.74028899642	303291
3	574657	150.787420852832	303432
3	580533	152.44876899642	303573
3	580655	152.46260899642	303714
3	580711	152.47644899642	303855
3	580864	152.50412899642	303996
3	588425	154.74780899642	304137
3	588545	154.76164899642	304278
3	588585	154.77548899642	304419
3	590407	155.288456785734	304560
3	590555	155.302296785734	304701
3	596258	156.93396899642	304842
3	596295	156.94780899642	304983
3	608483	160.48396899642	305124
3	608502	160.49780899642	305265
3	608652	160.51164899642	305406
3	623575	164.79876899642	305547
0	738871	198	3
0	738872	198	5
0	738873	198	3
0	738874	198	5
0	738875	198	8
0	738876	198	5
0	738877	198	3
0	738878	198	5
0	738879	198	3
0	738880	198	1
0	738881	198	1
0	738882	198	3
0	738883	198	5
0	738884	198	3
0	738885	198	5
0	738886	198	8
0	738887	198	5
0	738888	198	3
0	738889	198	5
0	738890	198	3
0	738891	198	1
0	738892	198	1
0	739095	198.05	3
0	739096	198.05	5
0	739097	198.05	3
0	739098	198.05	5
0	739099	198.05	8
0	739100	198.05	5
0	739101	198.05	3
0	739102	198.05	5
0	739103	198.05	3
0	739104	198.05	1
0	739105	198.05	1
0	739263	198.1	3
0	739264	198.1	5
0	739265	198.1	3
0	739266	198.1	5
0	739267	198.1	8
0	739268	198.1	5
0	739269	198.1	3
0	739270	198.1	5
0	739271	198.1	3
0	739272	198.1	1
0	739273	198.1	1
0	739274	198.1	3
0	739275	198.1	5
0	739276	198.1	3
0	739277	198.1	5
0	739278	198.1	8
0	739279	198.1	5
0	739280	198.1	3
0	739281	198.1	5
0	739282	198.1	3
0	739283	198.1	1
0	739284	198.1	1
0	739441	198.15	3
0	739442	198.15	5
0	739443	198.15	3
0	739444	198.15	5
0	739445	198.15	8
0	739446	198.15	5
0	739447	198.15	3
0	739448	198.15	5
0	739449	198.15	3
0	739450	198.15	1
0	739451	198.15	1
0	739608	198.2	3
0	739609	198.2	5
0	739610	198.2	3
0	739611	198.2	5
0	739612	198.2	8
0	739613	198.2	5
0	739614	198.2	3
0	739615	198.2	5
0	739616	198.2	3
0	739617	198.2	1
0	739618	198.2	1
0	739619	198.2	3
0	739620	198.2	5
0	739621	198.2	3
0	739622	198.2	5
0	739623	198.2	8
0	739624	198.2	5
0	739625	198.2	3
0	739626	198.2	5
0	739627	198.2	3
0	739628	198.2	1
0	739629	198.2	1
0	739860	198.25	3
0	739861	198.25	5
0	739862	198.25	3
0	739863	198.25	5
0	739864	198.25	8
0	739865	198.25	5
0	739866	198.25	3
0	739867	198.25	5
0	739868	198.25	3
0	739869	198.25	1
0	739870	198.25	1
0	740005	198.3	3
0	740006	198.3	5
0	740007	198.3	3
0	740008	198.3	5
0	740009	198.3	8
0	740010	198.3	5
0	740011	198.3	3
0	740012	198.3	5
0	740013	198.3	3
0	740014	198.3	1
0	740015	198.3	1
0	740016	198.3	3
0	740017	198.3	5
0	740018	198.3	3
0	740019	198.3	5
0	740020	198.3	8
0	740021	198.3	5
0	740022	198.3	3
0	740023	198.3	5
0	740024	198.3	3
0	740025	198.3	1
0	740026	198.3	1
0	740182	198.35	3
0	740183	198.35	5
0	740184	198.35	3
0	740185	198.35	5
0	740186	198.35	8
0	740187	198.35	5
0	740188	198.35	3
0	740189	198.35	5
0	740190	198.35	3
0	740191	198.35	1
0	740192	198.35	1
0	740344	198.4	3
0	740345	198.4	5
0	740346	198.4	3
0	740347	198.4	5
0	740348	198.4	8
0	740349	198.4	5
0	740350	198.4	3
0	740351	198.4	5
0	740352	198.4	3
0	740353	198.4	1
0	740354	198.4	1
0	740355	198.4	3
0	740356	198.4	5
0	740357	198.4	3
0	740358	198.4	5
0	740359	198.4	8
0	740360	198.4	5
0	740361	198.4	3
0	740362	198.4	5
0	740363	198.4	3
0	740364	198.4	1
0	740365	198.4	1
0	740545	198.45	3
0	740546	198.45	5
0	740547	198.45	3
0	740548	198.45	5
0	740549	198.45	8
0	740550	198.45	5
0	740551	198.45	3
0	740552	198.45	5
0	740553	198.45	3
0	740554	198.45	1
0	740555	198.45	1
0	740667	198.5	3
0	740668	198.5	5
0	740669	198.5	3
0	740670	198.5	5
0	740671	198.5	8
0	740672	198.5	5
0	740673	198.5	3
0	740674	198.5	5
0	740675	198.5	3
0	740676	198.5	1
0	740677	198.5	1
0	740678	198.5	3
0	740679	198.5	5
0	740680	198.5	3
0	740681	198.5	5
0	740682	198.5	8
0	740683	198.5	5
0	740684	198.5	3
0	740685	198.5	5
0	740686	198.5	3
0	740687	198.5	1
0	740688	198.5	1
0	740845	198.55	3
0	740846	198.55	5
0	740847	198.55	3
0	740848	198.55	5
0	740849	198.55	8
0	740850	198.55	5
0	740851	198.55	3
0	740852	198.55	5
0	740853	198.55	3
0	740854	198.55	1
0	740855	198.55	1
0	741030	198.6	3
0	741031	198.6	5
0	741032	198.6	3
0	741033	198.6	5
0	741034	198.6	8
0	741035	198.6	5
0	741036	198.6	3
0	741037	198.6	5
0	741038	198.6	3
0	741039	198.6	1
0	741040	198.6	1
0	741041	198.6	3
0	741042	198.6	5
0	741043	198.6	3
0	741044	198.6	5
0	741045	198.6	8
0	741046	198.6	5
0	741047	198.6	3
0	741048	198.6	5
0	741049	198.6	3
0	741050	198.6	1
0	741051	198.6	1
0	741208	198.65	3
0	741209	198.65	5
0	741210	198.65	3
0	741211	198.65	5
0	741212	198.65	8
0	741213	198.65	5
0	741214	198.65	3
0	741215	198.65	5
0	741216	198.65	3
0	741217	198.65	1
0	741218	198.65	1
0	741353	198.7	3
0	741354	198.7	5
0	741355	198.7	3
0	741356	198.7	5
0	741357	198.7	8
0	741358	198.7	5
0	741359	198.7	3
0	741360	198.7	5
0	741361	198.7	3
0	741362	198.7	1
0	741363	198.7	1
0	741364	198.7	3
0	741365	198.7	5
0	741366	198.7	3
0	741367	198.7	5
0	741368	198.7	8
0	741369	198.7	5
0	741370	198.7	3
0	741371	198.7	5
0	741372	198.7	3
0	741373	198.7	1
0	741374	198.7	1
0	741525	198.75	3
0	741526	198.75	5
0	741527	198.75	3
0	741528	198.75	5
0	741529	198.75	8
0	741530	198.75	5
0	741531	198.75	3
0	741532	198.75	5
0	741533	198.75	3
0	741534	198.75	1
0	741535	198.75	1
0	741762	198.8	3
0	741763	198.8	5
0	741764	198.8	3
0	741765	198.8	5
0	741766	198.8	8
0	741767	198.8	5
0	741768	198.8	3
0	741769	198.8	5
0	741770	198.8	3
0	741771	198.8	1
0	741772	198.8	1
0	741773	198.8	3
0	741774	198.8	5
0	741775	198.8	3
0	741776	198.8	5
0	741777	198.8	8
0	741778	198.8	5
0	741779	198.8	3
0	741780	198.8	5
0	741781	198.8	3
0	741782	198.8	1
0	741783	198.8	1
0	741957	198.85	3
0	741958	198.85	5
0	741959	198.85	3
0	741960	198.85	5
0	741961	198.85	8
0	741962	198.85	5
0	741963	198.85	3
0	741964	198.85	5
0	741965	198.85	3
0	741966	198.85	1
0	741967	198.85	1
0	742096	198.9	3
0	742097	198.9	5
0	742098	198.9	3
0	742099	198.9	5
0	742100	198.9	8
0	742101	198.9	5
0	742102	198.9	3
0	742103	198.9	5
0	742104	198.9	3
0	742105	198.9	1
0	742106	198.9	1
0	742107	198.9	3
0	742108	198.9	5
0	742109	198.9	3
0	742110	198.9	5
0	742111	198.9	8
0	742112	198.9	5
0	742113	198.9	3
0	742114	198.9	5
0	742115	198.9	3
0	742116	198.9	1
0	742117	198.9	1
0	742343	198.95	3
0	742344	198.95	5
0	742345	198.95	3
0	742346	198.95	5
0	742347	198.95	8
0	742348	198.95	5
0	742349	198.95	3
0	742350	198.95	5
0	742351	198.95	3
0	742352	198.95	1
0	742353	198.95	1
0	742539	199	3
0	742540	199	5
0	742541	199	3
0	742542	199	5
0	742543	199	8
0	742544	199	5
0	742545	199	3
0	742546	199	5
0	742547	199	3
0	742548	199	1
0	742549	199	1
0	742550	199	3
0	742551	199	5
0	742552	199	3
0	742553	199	5
0	742554	199	8
0	742555	199	5
0	742556	199	3
0	742557	199	5
0	742558	199	3
0	742559	199	1
0	742560	199	1
0	742694	199.05	3
0	742695	199.05	5
0	742696	199.05	3
0	742697	199.05	5
0	742698	199.05	8
0	742699	199.05	5
0	742700	199.05	3
0	742701	199.05	5
0	742702	199.05	3
0	742703	199.05	1
0	742704	199.05	1
0	742862	199.1	3
0	742863	199.1	5
0	742864	199.1	3
0	742865	199.1	5
0	742866	199.1	8
0	742867	199.1	5
0	742868	199.1	3
0	742869	199.1	5
0	742870	199.1	3
0	742871	199.1	1
0	742872	199.1	1
0	742873	199.1	3
0	742874	199.1	5
0	742875	199.1	3
0	742876	199.1	5
0	742877	199.1	8
0	742878	199.1	5
0	742879	199.1	3
0	742880	199.1	5
0	742881	199.1	3
0	742882	199.1	1
0	742883	199.1	1
0	743091	199.15	3
0	743092	199.15	5
0	743093	199.15	3
0	743094	199.15	5
0	743095	199.15	8
0	743096	199.15	5
0	743097	199.15	3
0	743098	199.15	5
0	743099	199.15	3
0	743100	199.15	1
0	743101	199.15	1
0	743218	199.2	3
0	743219	199.2	5
0	743220	199.2	3
0	743221	199.2	5
0	743222	199.2	8
0	743223	199.2	5
0	743224	199.2	3
0	743225	199.2	5
0	743226	199.2	3
0	743227	199.2	1
0	743228	199.2	1
0	743229	199.2	3
0	743230	199.2	5
0	743231	199.2	3
0	743232	199.2	5
0	743233	199.2	8
0	743234	199.2	5
0	743235	199.2	3
0	743236	199.2	5
0	743237	199.2	3
0	743238	199.2	1
0	743239	199.2	1
0	743390	199.25	3
0	743391	199.25	5
0	743392	199.25	3
0	743393	199.25	5
0	743394	199.25	8
0	743395	199.25	5
0	743396	199.25	3
0	743397	199.25	5
0	743398	199.25	3
0	743399	199.25	1
0	743400	199.25	1
0	743535	199.3	3
0	743536	199.3	5
0	743537	199.3	3
0	743538	199.3	5
0	743539	199.3	8
0	743540	199.3	5
0	743541	199.3	3
0	743542	199.3	5
0	743543	199.3	3
0	743544	199.3	1
0	743545	199.3	1
0	743546	199.3	3
0	743547	199.3	5
0	743548	199.3	3
0	743549	199.3	5
0	743550	199.3	8
0	743551	199.3	5
0	743552	199.3	3
0	743553	199.3	5
0	743554	199.3	3
0	743555	199.3	1
0	743556	199.3	1
0	743776	199.35	3
0	743777	199.35	5
0	743778	199.35	3
0	743779	199.35	5
0	743780	199.35	8
0	743781	199.35	5
0	743782	199.35	3
0	743783	199.35	5
0	743784	199.35	3
0	743785	199.35	1
0	743786	199.35	1
0	743949	199.4	3
0	743950	199.4	5
0	743951	199.4	3
0	743952	199.4	5
0	743953	199.4	8
0	743954	199.4	5
0	743955	199.4	3
0	743956	199.4	5
0	743957	199.4	3
0	743958	199.4	1
0	743959	199.4	1
0	743960	199.4	3
0	743961	199.4	5
0	743962	199.4	3
0	743963	199.4	5
0	743964	199.4	8
0	743965	199.4	5
0	743966	199.4	3
0	743967	199.4	5
0	743968	199.4	3
0	743969	199.4	1
0	743970	199.4	1
0	744121	199.45	3
0	744122	199.45	5
0	744123	199.45	3
0	744124	199.45	5
0	744125	199.45	8
0	744126	199.45	5
0	744127	199.45	3
0	744128	199.45	5
0	744129	199.45	3
0	744130	199.45	1
0	744131	199.45	1
0	744317	199.5	3
0	744318	199.5	5
0	744319	199.5	3
0	744320	199.5	5
0	744321	199.5	8
0	744322	199.5	5
0	744323	199.5	3
0	744324	199.5	5
0	744325	199.5	3
0	744326	199.5	1
0	744327	199.5	1
0	744328	199.5	3
0	744329	199.5	5
0	744330	199.5	3
0	744331	199.5	5
0	744332	199.5	8
0	744333	199.5	5
0	744334	199.5	3
0	744335	199.5	5
0	744336	199.5	3
0	744337	199.5	1
0	744338	199.5	1
0	744546	199.55	3
0	744547	199.55	5
0	744548	199.55	3
0	744549	199.55	5
0	744550	199.55	8
0	744551	199.55	5
0	744552	199.55	3
0	744553	199.55	5
0	744554	199.55	3
0	744555	199.55	1
0	744556	199.55	1
0	744668	199.6	3
0	744669	199.6	5
0	744670	199.6	3
0	744671	199.6	5
0	744672	199.6	8
0	744673	199.6	5
0	744674	199.6	3
0	744675	199.6	5
0	744676	199.6	3
0	744677	199.6	1
0	744678	199.6	1
0	744679	199.6	3
0	744680	199.6	5
0	744681	199.6	3
0	744682	199.6	5
0	744683	199.6	8
0	744684	199.6	5
0	744685	199.6	3
0	744686	199.6	5
0	744687	199.6	3
0	744688	199.6	1
0	744689	199.6	1
0	744846	199.65	3
0	744847	199.65	5
0	744848	199.65	3
0	744849	199.65	5
0	744850	199.65	8
0	744851	199.65	5
0	744852	199.65	3
0	744853	199.65	5
0	744854	199.65	3
0	744855	199.65	1
0	744856	199.65	1
0	745060	199.7	3
0	745061	199.7	5
0	745062	199.7	3
0	745063	199.7	5
0	745064	199.7	8
0	745065	199.7	5
0	745066	199.7	3
0	745067	199.7	5
0	745068	199.7	3
0	745069	199.7	1
0	745070	199.7	1
0	745071	199.7	3
0	745072	199.7	5
0	745073	199.7	3
0	745074	199.7	5
0	745075	199.7	8
0	745076	199.7	5
0	745077	199.7	3
0	745078	199.7	5
0	745079	199.7	3
0	745080	199.7	1
0	745081	199.7	1
0	745215	199.75	3
0	745216	199.75	5
0	745217	199.75	3
0	745218	199.75	5
0	745219	199.75	8
0	745220	199.75	5
0	745221	199.75	3
0	745222	199.75	5
0	745223	199.75	3
0	745224	199.75	1
0	745225	199.75	1
0	745360	199.8	3
0	745361	199.8	5
0	745362	199.8	3
0	745363	199.8	5
0	745364	199.8	8
0	745365	199.8	5
0	745366	199.8	3
0	745367	199.8	5
0	745368	199.8	3
0	745369	199.8	1
0	745370	199.8	1
0	745371	199.8	3
0	745372	199.8	5
0	745373	199.8	3
0	745374	199.8	5
0	745375	199.8	8
0	745376	199.8	5
0	745377	199.8	3
0	745378	199.8	5
0	745379	199.8	3
0	745380	199.8	1
0	745381	199.8	1
0	745543	199.85	3
0	745544	199.85	5
0	745545	199.85	3
0	745546	199.85	5
0	745547	199.85	8
0	745548	199.85	5
0	745549	199.85	3
0	745550	199.85	5
0	745551	199.85	3
0	745552	199.85	1
0	745553	199.85	1
0	745757	199.9	3
0	745758	199.9	5
0	745759	199.9	3
0	745760	199.9	5
0	745761	199.9	8
0	745762	199.9	5
0	745763	199.9	3
0	745764	199.9	5
0	745765	199.9	3
0	745766	199.9	1
0	745767	199.9	1
0	745768	199.9	3
0	745769	199.9	5
0	745770	199.9	3
0	745771	199.9	5
0	745772	199.9	8
0	745773	199.9	5
0	745774	199.9	3
0	745775	199.9	5
0	745776	199.9	3
0	745777	199.9	1
0	745778	199.9	1
0	745940	199.95	3
0	745941	199.95	5
0	745942	199.95	3
0	745943	199.95	5
0	745944	199.95	8
0	745945	199.95	5
0	745946	199.95	3
0	745947	199.95	5
0	745948	199.95	3
0	745949	199.95	1
0	745950	199.95	1
0	746071	200	3
0	746072	200	5
0	746073	200	3
0	746074	200	5
0	746075	200	8
0	746076	200	5
0	746077	200	3
0	746078	200	5
0	746079	200	3
0	746080	200	1
0	746081	200	1
0	746082	200	3
0	746083	200	5
0	746084	200	3
0	746085	200	5
0	746086	200	8
0	746087	200	5
0	746088	200	3
0	746089	200	5
0	746090	200	3
0	746091	200	1
0	746092	200	1

