version 2
run A-0-20191028-03:04:46-12075
attr configname A
attr datetime 20191028-03:04:46
attr experiment A
attr inifile GwSimV1.ini
attr iterationvars ""
attr iterationvarsf ""
attr measurement ""
attr network NetworkTormV2
attr processid 12075
attr repetition 0
attr replication #0
attr resultdir results
attr runnumber 0
attr seedset 0
param **.mobility.traceFile "\"AllPaths/sPaths/A.movements\""
param **.numNodes 4
param **.application.dataGenerationInterval 1s
param **.application.dataSizeInBytes 10
param **.application.ttl 999999s
param **application.nodesThatGen false
param **application.nodesGenMsg "\"\""
param **application.startMultipleMsg false
param **application.numMultipleMsg 100
param **application.hopsListSize 50
param **.application.endGeneratingMsg 99s
param **.routingLayer "\"RoutingLqeGw\""
param **.routing.maximumCacheSize 5000byte
param **.routing.maximumHopCount 25
param **.routing.useTTL false
param **.routing.waitBFsend 0.1
param **.routing.max_age 999999s
param **.routing.gateway_list "\"\""
param **.routing.actual_gateway "\"\""
param **.routing.gwCheckPeriod 5s
param **.neighboring.resetGPeriod 999s
param **.wirelessIfc.wirelessRange 40m
param **.numNodes 2
param **.application.usedRNG 1
param **.application.dataGenerationInterval 1s
param **.application.dataSizeInBytes 10
param **.application.ttl 999999s
param **application.destinationAddr "\"Wf:00:00:00:00:02\""
param **application.destinationBTAddr "\"Bt:00:00:00:00:02\""
param **application.nodesThatGen true
param **application.nodesGenMsg "\"0\""
param **application.startMultipleMsg true
param **application.numMultipleMsg 100
param **application.hopsListSize 50
param **.application.endGeneratingMsg 999999s
param **.routingLayer "\"RoutingLqeGw\""
param **.routing.maximumCacheSize 5000byte
param **.routing.maximumHopCount 25
param **.routing.useTTL false
param **.routing.waitBFsend 0.1
param **.routing.max_age 999999s
param **.routing.gateway_list "\"\""
param **.routing.actual_gateway "\"\""
param **.routing.gwCheckPeriod 5s
param **.neighboring.antiEntropyInterval 500ms
param **.neighboring.maximumRandomBackoffDuration 1s
param **.neighboring.delayPerDataMsg 0.1
param **neighboring.usedRNG 2
param **.neighboring.GWAddr "\"Wf:00:00:00:00:02\""
param **.neighboring.sendWifiFirst true
param **.neighboring.maxLengthGraph 20
param **.neighboring.max_age 999999s
param **.neighboring.max_absent_time 1s
param **.wirelessIfc.wirelessRange 40m
param **.wirelessIfc.neighbourScanInterval 50ms
param **.wirelessIfc.bandwidthBitRate 100000bps
param **.wirelessIfc.wirelessHeaderSize 32byte
param **.wirelessIfc.minSSI -90
param **.wirelessIfc.limitQueueTime 400ms
param **.wirelessIfc.my_limit_rate 0bps
param **.bluetoothIfc.wirelessRange 40m
param **.bluetoothIfc.neighbourScanInterval 100ms
param **.bluetoothIfc.bandwidthBitRate 100000bps
param **.bluetoothIfc.wirelessHeaderSize 16byte
param **.bluetoothIfc.minSSI -90
param **.mobilityType "\"BonnMotionMobility\""
param **.mobility.traceFile "\"paths/Moves2.movements\""
param **.mobility.is3D false
param **.mobility.nodeId -1

vector 0 NetworkTormV2 neighbourhoodSize:vector ETV
attr source neighbourhoodSize
vector 1 NetworkTormV2 deliveryRatio:vector ETV
attr source sum(totalDataBytesReceived)/sum(totalDataBytesReceivableByAllNodes)
vector 2 NetworkTormV2 dataBytesReceivedSum:vector ETV
attr source sum(dataBytesReceived)
vector 3 NetworkTormV2 totalBytesReceivedSum:vector ETV
attr source sum(totalBytesReceived)
0	13	0.05	3
0	14	0.05	3
0	15	0.05	3
0	16	0.05	3
0	50	0.1	3
0	52	0.1	3
0	54	0.1	3
0	56	0.1	3
0	57	0.1	3
0	58	0.1	3
0	59	0.1	3
0	60	0.1	3
0	105	0.15	3
0	106	0.15	3
0	107	0.15	3
0	108	0.15	3
0	141	0.2	3
0	142	0.2	3
0	143	0.2	3
0	144	0.2	3
0	145	0.2	3
0	146	0.2	3
0	147	0.2	3
0	148	0.2	3
0	189	0.25	3
0	190	0.25	3
0	191	0.25	3
0	192	0.25	3
0	225	0.3	3
0	226	0.3	3
0	227	0.3	3
0	228	0.3	3
0	229	0.3	3
0	230	0.3	3
0	231	0.3	3
0	232	0.3	3
0	273	0.35	3
0	274	0.35	3
0	275	0.35	3
0	276	0.35	3
0	309	0.4	3
0	310	0.4	3
0	311	0.4	3
0	312	0.4	3
0	313	0.4	3
0	314	0.4	3
0	315	0.4	3
0	316	0.4	3
0	357	0.45	3
0	358	0.45	3
0	359	0.45	3
0	360	0.45	3
0	393	0.5	3
0	394	0.5	3
0	395	0.5	3
0	396	0.5	3
0	397	0.5	3
0	398	0.5	3
0	399	0.5	3
0	400	0.5	3
0	441	0.55	3
0	442	0.55	3
0	443	0.55	3
0	444	0.55	3
0	477	0.6	3
0	478	0.6	3
0	479	0.6	3
0	480	0.6	3
0	481	0.6	3
0	482	0.6	3
0	483	0.6	3
0	484	0.6	3
0	525	0.65	3
0	526	0.65	3
0	527	0.65	3
0	528	0.65	3
0	561	0.7	3
0	562	0.7	3
0	563	0.7	3
0	564	0.7	3
0	565	0.7	3
0	566	0.7	3
0	567	0.7	3
0	568	0.7	3
0	609	0.75	3
0	610	0.75	3
0	611	0.75	3
0	612	0.75	3
0	645	0.8	3
0	646	0.8	3
0	647	0.8	3
0	648	0.8	3
0	649	0.8	3
0	650	0.8	3
0	651	0.8	3
0	652	0.8	3
0	693	0.85	3
0	694	0.85	3
0	695	0.85	3
0	696	0.85	3
0	729	0.9	3
0	730	0.9	3
0	731	0.9	3
0	732	0.9	3
0	733	0.9	3
0	734	0.9	3
0	735	0.9	3
0	736	0.9	3
0	777	0.95	3
0	778	0.95	3
0	779	0.95	3
0	780	0.95	3
0	813	1	3
0	814	1	3
0	815	1	3
0	816	1	3
0	817	1	3
0	818	1	3
0	819	1	3
0	820	1	3
0	861	1.05	3
0	862	1.05	3
0	863	1.05	3
0	864	1.05	3
0	901	1.1	3
0	902	1.1	3
0	903	1.1	3
0	904	1.1	3
0	905	1.1	3
0	906	1.1	3
0	907	1.1	3
0	908	1.1	3
0	1157	1.15	3
0	1158	1.15	3
0	1159	1.15	3
0	1160	1.15	3
0	1265	1.2	3
0	1266	1.2	3
0	1267	1.2	3
0	1268	1.2	3
0	1269	1.2	3
0	1270	1.2	3
0	1271	1.2	3
0	1272	1.2	3
0	1313	1.25	3
0	1314	1.25	3
0	1315	1.25	3
0	1316	1.25	3
0	1349	1.3	3
0	1350	1.3	3
0	1351	1.3	3
0	1352	1.3	3
0	1353	1.3	3
0	1354	1.3	3
0	1355	1.3	3
0	1356	1.3	3
0	1397	1.35	3
0	1398	1.35	3
0	1399	1.35	3
0	1400	1.35	3
0	1433	1.4	3
0	1434	1.4	3
0	1435	1.4	3
0	1436	1.4	3
0	1437	1.4	3
0	1438	1.4	3
0	1439	1.4	3
0	1440	1.4	3
0	1481	1.45	3
0	1482	1.45	3
0	1483	1.45	3
0	1484	1.45	3
0	1517	1.5	3
0	1518	1.5	3
0	1519	1.5	3
0	1520	1.5	3
0	1521	1.5	3
0	1522	1.5	3
0	1523	1.5	3
0	1524	1.5	3
0	1565	1.55	3
0	1566	1.55	3
0	1567	1.55	3
0	1568	1.55	3
0	1601	1.6	3
0	1602	1.6	3
0	1603	1.6	3
0	1604	1.6	3
0	1605	1.6	3
0	1606	1.6	3
0	1607	1.6	3
0	1608	1.6	3
0	1649	1.65	3
0	1650	1.65	3
0	1651	1.65	3
0	1652	1.65	3
0	1889	1.7	3
0	1890	1.7	3
0	1891	1.7	3
0	1892	1.7	3
0	1893	1.7	3
0	1894	1.7	3
0	1895	1.7	3
0	1896	1.7	3
0	2009	1.75	3
0	2010	1.75	3
0	2011	1.75	3
0	2012	1.75	3
0	2045	1.8	3
0	2046	1.8	3
0	2047	1.8	3
0	2048	1.8	3
0	2049	1.8	3
0	2050	1.8	3
0	2051	1.8	3
0	2052	1.8	3
0	2093	1.85	3
0	2094	1.85	3
0	2095	1.85	3
0	2096	1.85	3
0	2129	1.9	3
0	2130	1.9	3
0	2131	1.9	3
0	2132	1.9	3
0	2133	1.9	3
0	2134	1.9	3
0	2135	1.9	3
0	2136	1.9	3
0	2177	1.95	3
0	2178	1.95	3
0	2179	1.95	3
0	2180	1.95	3
0	2213	2	3
0	2214	2	3
0	2215	2	3
0	2216	2	3
0	2217	2	3
0	2218	2	3
0	2219	2	3
0	2220	2	3
0	2261	2.05	3
0	2262	2.05	3
0	2263	2.05	3
0	2264	2.05	3
0	2301	2.1	3
0	2302	2.1	3
0	2303	2.1	3
0	2304	2.1	3
0	2305	2.1	3
0	2306	2.1	3
0	2307	2.1	3
0	2308	2.1	3
0	2353	2.15	3
0	2354	2.15	3
0	2355	2.15	3
0	2356	2.15	3
0	2389	2.2	3
0	2390	2.2	3
0	2391	2.2	3
0	2392	2.2	3
0	2393	2.2	3
0	2394	2.2	3
0	2395	2.2	3
0	2396	2.2	3
0	2641	2.25	3
0	2642	2.25	3
0	2643	2.25	3
0	2644	2.25	3
0	2749	2.3	3
0	2750	2.3	3
0	2751	2.3	3
0	2752	2.3	3
0	2753	2.3	3
0	2754	2.3	3
0	2755	2.3	3
0	2756	2.3	3
0	2797	2.35	3
0	2798	2.35	3
0	2799	2.35	3
0	2800	2.35	3
0	2833	2.4	3
0	2834	2.4	3
0	2835	2.4	3
0	2836	2.4	3
0	2837	2.4	3
0	2838	2.4	3
0	2839	2.4	3
0	2840	2.4	3
0	2881	2.45	3
0	2882	2.45	3
0	2883	2.45	3
0	2884	2.45	3
0	2917	2.5	3
0	2918	2.5	3
0	2919	2.5	3
0	2920	2.5	3
0	2921	2.5	3
0	2922	2.5	3
0	2923	2.5	3
0	2924	2.5	3
0	2965	2.55	3
0	2966	2.55	3
0	2967	2.55	3
0	2968	2.55	3
0	3001	2.6	3
0	3002	2.6	3
0	3003	2.6	3
0	3004	2.6	3
0	3005	2.6	3
0	3006	2.6	3
0	3007	2.6	3
0	3008	2.6	3
0	3049	2.65	3
0	3050	2.65	3
0	3051	2.65	3
0	3052	2.65	3
0	3085	2.7	3
0	3086	2.7	3
0	3087	2.7	3
0	3088	2.7	3
0	3089	2.7	3
0	3090	2.7	3
0	3091	2.7	3
0	3092	2.7	3
0	3133	2.75	3
0	3134	2.75	3
0	3135	2.75	3
0	3136	2.75	3
0	3373	2.8	3
0	3374	2.8	3
0	3375	2.8	3
0	3376	2.8	3
0	3377	2.8	3
0	3378	2.8	3
0	3379	2.8	3
0	3380	2.8	3
0	3493	2.85	3
0	3494	2.85	3
0	3495	2.85	3
0	3496	2.85	3
0	3529	2.9	3
0	3530	2.9	3
0	3531	2.9	3
0	3532	2.9	3
0	3533	2.9	3
0	3534	2.9	3
0	3535	2.9	3
0	3536	2.9	3
0	3577	2.95	3
0	3578	2.95	3
0	3579	2.95	3
0	3580	2.95	3
0	3613	3	3
0	3614	3	3
0	3615	3	3
0	3616	3	3
0	3617	3	3
0	3618	3	3
0	3619	3	3
0	3620	3	3
0	3661	3.05	3
0	3662	3.05	3
0	3663	3.05	3
0	3664	3.05	3
0	3701	3.1	3
0	3702	3.1	3
0	3703	3.1	3
0	3704	3.1	3
0	3705	3.1	3
0	3706	3.1	3
0	3707	3.1	3
0	3708	3.1	3
0	3753	3.15	3
0	3754	3.15	3
0	3755	3.15	3
0	3756	3.15	3
0	3789	3.2	3
0	3790	3.2	3
0	3791	3.2	3
0	3792	3.2	3
0	3793	3.2	3
0	3794	3.2	3
0	3795	3.2	3
0	3796	3.2	3
0	3837	3.25	3
0	3838	3.25	3
0	3839	3.25	3
0	3840	3.25	3
0	3873	3.3	3
0	3874	3.3	3
0	3875	3.3	3
0	3876	3.3	3
0	3877	3.3	3
0	3878	3.3	3
0	3879	3.3	3
0	3880	3.3	3
0	4125	3.35	3
0	4126	3.35	3
0	4127	3.35	3
0	4128	3.35	3
0	4233	3.4	3
0	4234	3.4	3
0	4235	3.4	3
0	4236	3.4	3
0	4237	3.4	3
0	4238	3.4	3
0	4239	3.4	3
0	4240	3.4	3
0	4281	3.45	3
0	4282	3.45	3
0	4283	3.45	3
0	4284	3.45	3
0	4317	3.5	3
0	4318	3.5	3
0	4319	3.5	3
0	4320	3.5	3
0	4321	3.5	3
0	4322	3.5	3
0	4323	3.5	3
0	4324	3.5	3
0	4365	3.55	3
0	4366	3.55	3
0	4367	3.55	3
0	4368	3.55	3
0	4401	3.6	3
0	4402	3.6	3
0	4403	3.6	3
0	4404	3.6	3
0	4405	3.6	3
0	4406	3.6	3
0	4407	3.6	3
0	4408	3.6	3
0	4449	3.65	3
0	4450	3.65	3
0	4451	3.65	3
0	4452	3.65	3
0	4485	3.7	3
0	4486	3.7	3
0	4487	3.7	3
0	4488	3.7	3
0	4489	3.7	3
0	4490	3.7	3
0	4491	3.7	3
0	4492	3.7	3
0	4533	3.75	3
0	4534	3.75	3
0	4535	3.75	3
0	4536	3.75	3
0	4569	3.8	3
0	4570	3.8	3
0	4571	3.8	3
0	4572	3.8	3
0	4573	3.8	3
0	4574	3.8	3
0	4575	3.8	3
0	4576	3.8	3
0	4617	3.85	3
0	4618	3.85	3
0	4619	3.85	3
0	4620	3.85	3
0	4857	3.9	3
0	4858	3.9	3
0	4859	3.9	3
0	4860	3.9	3
0	4861	3.9	3
0	4862	3.9	3
0	4863	3.9	3
0	4864	3.9	3
0	4977	3.95	3
0	4978	3.95	3
0	4979	3.95	3
0	4980	3.95	3
0	5013	4	3
0	5014	4	3
0	5015	4	3
0	5016	4	3
0	5017	4	3
0	5018	4	3
0	5019	4	3
0	5020	4	3
0	5061	4.05	3
0	5062	4.05	3
0	5063	4.05	3
0	5064	4.05	3
0	5101	4.1	3
0	5102	4.1	3
0	5103	4.1	3
0	5104	4.1	3
0	5105	4.1	3
0	5106	4.1	3
0	5107	4.1	3
0	5108	4.1	3
0	5153	4.15	3
0	5154	4.15	3
0	5155	4.15	3
0	5156	4.15	3
0	5189	4.2	3
0	5190	4.2	3
0	5191	4.2	3
0	5192	4.2	3
0	5193	4.2	3
0	5194	4.2	3
0	5195	4.2	3
0	5196	4.2	3
0	5237	4.25	3
0	5238	4.25	3
0	5239	4.25	3
0	5240	4.25	3
0	5273	4.3	3
0	5274	4.3	3
0	5275	4.3	3
0	5276	4.3	3
0	5277	4.3	3
0	5278	4.3	3
0	5279	4.3	3
0	5280	4.3	3
0	5321	4.35	3
0	5322	4.35	3
0	5323	4.35	3
0	5324	4.35	3
0	5357	4.4	3
0	5358	4.4	3
0	5359	4.4	3
0	5360	4.4	3
0	5361	4.4	3
0	5362	4.4	3
0	5363	4.4	3
0	5364	4.4	3
0	5609	4.45	3
0	5610	4.45	3
0	5611	4.45	3
0	5612	4.45	3
0	5717	4.5	3
0	5718	4.5	3
0	5719	4.5	3
0	5720	4.5	3
0	5721	4.5	3
0	5722	4.5	3
0	5723	4.5	3
0	5724	4.5	3
0	5765	4.55	3
0	5766	4.55	3
0	5767	4.55	3
0	5768	4.55	3
0	5801	4.6	3
0	5802	4.6	3
0	5803	4.6	3
0	5804	4.6	3
0	5805	4.6	3
0	5806	4.6	3
0	5807	4.6	3
0	5808	4.6	3
0	5849	4.65	3
0	5850	4.65	3
0	5851	4.65	3
0	5852	4.65	3
0	5885	4.7	3
0	5886	4.7	3
0	5887	4.7	3
0	5888	4.7	3
0	5889	4.7	3
0	5890	4.7	3
0	5891	4.7	3
0	5892	4.7	3
0	5933	4.75	3
0	5934	4.75	3
0	5935	4.75	3
0	5936	4.75	3
0	5969	4.8	3
0	5970	4.8	3
0	5971	4.8	3
0	5972	4.8	3
0	5973	4.8	3
0	5974	4.8	3
0	5975	4.8	3
0	5976	4.8	3
0	6017	4.85	3
0	6018	4.85	3
0	6019	4.85	3
0	6020	4.85	3
0	6053	4.9	3
0	6054	4.9	3
0	6055	4.9	3
0	6056	4.9	3
0	6057	4.9	3
0	6058	4.9	3
0	6059	4.9	3
0	6060	4.9	3
0	6101	4.95	3
0	6102	4.95	3
0	6103	4.95	3
0	6104	4.95	3
0	6345	5	3
0	6346	5	3
0	6347	5	3
0	6348	5	3
0	6349	5	3
0	6350	5	3
0	6351	5	3
0	6352	5	3
0	6465	5.05	3
0	6466	5.05	3
0	6467	5.05	3
0	6468	5.05	3
0	6505	5.1	3
0	6506	5.1	3
0	6507	5.1	3
0	6508	5.1	3
0	6509	5.1	3
0	6510	5.1	3
0	6511	5.1	3
0	6512	5.1	3
0	6557	5.15	3
0	6558	5.15	3
0	6559	5.15	3
0	6560	5.15	3
0	6593	5.2	3
0	6594	5.2	3
0	6595	5.2	3
0	6596	5.2	3
0	6597	5.2	3
0	6598	5.2	3
0	6599	5.2	3
0	6600	5.2	3
0	6641	5.25	3
0	6642	5.25	3
0	6643	5.25	3
0	6644	5.25	3
0	6677	5.3	3
0	6678	5.3	3
0	6679	5.3	3
0	6680	5.3	3
0	6681	5.3	3
0	6682	5.3	3
0	6683	5.3	3
0	6684	5.3	3
0	6725	5.35	3
0	6726	5.35	3
0	6727	5.35	3
0	6728	5.35	3
0	6761	5.4	3
0	6762	5.4	3
0	6763	5.4	3
0	6764	5.4	3
0	6765	5.4	3
0	6766	5.4	3
0	6767	5.4	3
0	6768	5.4	3
0	6809	5.45	3
0	6810	5.45	3
0	6811	5.45	3
0	6812	5.45	3
0	6849	5.5	3
0	6850	5.5	3
0	6851	5.5	3
0	6852	5.5	3
0	6853	5.5	3
0	6854	5.5	3
0	6855	5.5	3
0	6856	5.5	3
0	7101	5.55	3
0	7102	5.55	3
0	7103	5.55	3
0	7104	5.55	3
0	7209	5.6	3
0	7210	5.6	3
0	7211	5.6	3
0	7212	5.6	3
0	7213	5.6	3
0	7214	5.6	3
0	7215	5.6	3
0	7216	5.6	3
0	7257	5.65	3
0	7258	5.65	3
0	7259	5.65	3
0	7260	5.65	3
0	7293	5.7	3
0	7294	5.7	3
0	7295	5.7	3
0	7296	5.7	3
0	7297	5.7	3
0	7298	5.7	3
0	7299	5.7	3
0	7300	5.7	3
0	7341	5.75	3
0	7342	5.75	3
0	7343	5.75	3
0	7344	5.75	3
0	7377	5.8	3
0	7378	5.8	3
0	7379	5.8	3
0	7380	5.8	3
0	7381	5.8	3
0	7382	5.8	3
0	7383	5.8	3
0	7384	5.8	3
0	7425	5.85	3
0	7426	5.85	3
0	7427	5.85	3
0	7428	5.85	3
0	7461	5.9	3
0	7462	5.9	3
0	7463	5.9	3
0	7464	5.9	3
0	7465	5.9	3
0	7466	5.9	3
0	7467	5.9	3
0	7468	5.9	3
0	7509	5.95	3
0	7510	5.95	3
0	7511	5.95	3
0	7512	5.95	3
0	7549	6	3
0	7550	6	3
0	7551	6	3
0	7552	6	3
0	7553	6	3
0	7554	6	3
0	7555	6	3
0	7556	6	3
0	7597	6.05	3
0	7598	6.05	3
0	7599	6.05	3
0	7600	6.05	3
0	7841	6.1	3
0	7842	6.1	3
0	7843	6.1	3
0	7844	6.1	3
0	7845	6.1	3
0	7846	6.1	3
0	7847	6.1	3
0	7848	6.1	3
0	8025	6.15	3
0	8026	6.15	3
0	8027	6.15	3
0	8028	6.15	3
0	8123	6.2	3
0	8124	6.2	3
0	8125	6.2	3
0	8126	6.2	3
0	8127	6.2	3
0	8128	6.2	3
0	8129	6.2	3
0	8130	6.2	3
0	8189	6.25	3
0	8190	6.25	3
0	8191	6.25	3
0	8192	6.25	3
0	8225	6.3	3
0	8226	6.3	3
0	8227	6.3	3
0	8228	6.3	3
0	8229	6.3	3
0	8230	6.3	3
0	8231	6.3	3
0	8232	6.3	3
0	8273	6.35	3
0	8274	6.35	3
0	8275	6.35	3
0	8276	6.35	3
0	8309	6.4	3
0	8310	6.4	3
0	8311	6.4	3
0	8312	6.4	3
0	8313	6.4	3
0	8314	6.4	3
0	8315	6.4	3
0	8316	6.4	3
0	8357	6.45	3
0	8358	6.45	3
0	8359	6.45	3
0	8360	6.45	3
0	8397	6.5	3
0	8398	6.5	3
0	8399	6.5	3
0	8400	6.5	3
0	8401	6.5	3
0	8402	6.5	3
0	8403	6.5	3
0	8404	6.5	3
0	8445	6.55	3
0	8446	6.55	3
0	8447	6.55	3
0	8448	6.55	3
0	8481	6.6	3
0	8482	6.6	3
0	8483	6.6	3
0	8484	6.6	3
0	8485	6.6	3
0	8486	6.6	3
0	8487	6.6	3
0	8488	6.6	3
0	8747	6.65	3
0	8748	6.65	3
0	8749	6.65	3
0	8750	6.65	3
0	8967	6.7	3
0	8968	6.7	3
0	8969	6.7	3
0	8970	6.7	3
0	8971	6.7	3
0	8972	6.7	3
0	8973	6.7	3
0	8974	6.7	3
0	9145	6.75	3
0	9146	6.75	3
0	9147	6.75	3
0	9148	6.75	3
0	9219	6.8	3
0	9220	6.8	3
0	9221	6.8	3
0	9222	6.8	3
0	9223	6.8	3
0	9224	6.8	3
0	9225	6.8	3
0	9226	6.8	3
0	9267	6.85	3
0	9268	6.85	3
0	9269	6.85	3
0	9270	6.85	3
0	9303	6.9	3
0	9304	6.9	3
0	9305	6.9	3
0	9306	6.9	3
0	9307	6.9	3
0	9308	6.9	3
0	9309	6.9	3
0	9310	6.9	3
0	9351	6.95	3
0	9352	6.95	3
0	9353	6.95	3
0	9354	6.95	3
0	9390	7	3
0	9391	7	3
0	9392	7	3
0	9393	7	3
0	9394	7	3
0	9395	7	3
0	9396	7	3
0	9397	7	3
0	9438	7.05	3
0	9439	7.05	3
0	9440	7.05	3
0	9441	7.05	3
0	9478	7.1	3
0	9479	7.1	3
0	9480	7.1	3
0	9481	7.1	3
0	9482	7.1	3
0	9483	7.1	3
0	9484	7.1	3
0	9485	7.1	3
0	9531	7.15	3
0	9532	7.15	3
0	9533	7.15	3
0	9534	7.15	3
0	9773	7.2	3
0	9774	7.2	3
0	9775	7.2	3
0	9776	7.2	3
0	9777	7.2	3
0	9778	7.2	3
0	9779	7.2	3
0	9780	7.2	3
0	9954	7.25	3
0	9955	7.25	3
0	9956	7.25	3
0	9957	7.25	3
0	9990	7.3	3
0	9991	7.3	3
0	9992	7.3	3
0	9993	7.3	3
0	9994	7.3	3
0	9995	7.3	3
0	9996	7.3	3
0	9997	7.3	3
0	10038	7.35	3
0	10039	7.35	3
0	10040	7.35	3
0	10041	7.35	3
0	10074	7.4	3
0	10075	7.4	3
0	10076	7.4	3
0	10077	7.4	3
0	10078	7.4	3
0	10079	7.4	3
0	10080	7.4	3
0	10081	7.4	3
0	10122	7.45	3
0	10123	7.45	3
0	10124	7.45	3
0	10125	7.45	3
0	10158	7.5	3
0	10159	7.5	3
0	10160	7.5	3
0	10161	7.5	3
0	10162	7.5	3
0	10163	7.5	3
0	10164	7.5	3
0	10165	7.5	3
0	10206	7.55	3
0	10207	7.55	3
0	10208	7.55	3
0	10209	7.55	3
0	10242	7.6	3
0	10243	7.6	3
0	10244	7.6	3
0	10245	7.6	3
0	10246	7.6	3
0	10247	7.6	3
0	10248	7.6	3
0	10249	7.6	3
0	10290	7.65	3
0	10291	7.65	3
0	10292	7.65	3
0	10293	7.65	3
0	10326	7.7	3
0	10327	7.7	3
0	10328	7.7	3
0	10329	7.7	3
0	10330	7.7	3
0	10331	7.7	3
0	10332	7.7	3
0	10333	7.7	3
0	10578	7.75	3
0	10579	7.75	3
0	10580	7.75	3
0	10581	7.75	3
0	10686	7.8	3
0	10687	7.8	3
0	10688	7.8	3
0	10689	7.8	3
0	10690	7.8	3
0	10691	7.8	3
0	10692	7.8	3
0	10693	7.8	3
0	10734	7.85	3
0	10735	7.85	3
0	10736	7.85	3
0	10737	7.85	3
0	10770	7.9	3
0	10771	7.9	3
0	10772	7.9	3
0	10773	7.9	3
0	10774	7.9	3
0	10775	7.9	3
0	10776	7.9	3
0	10777	7.9	3
0	10818	7.95	3
0	10819	7.95	3
0	10820	7.95	3
0	10821	7.95	3
0	10854	8	3
0	10855	8	3
0	10856	8	3
0	10857	8	3
0	10858	8	3
0	10859	8	3
0	10860	8	3
0	10861	8	3
0	10902	8.05	3
0	10903	8.05	3
0	10904	8.05	3
0	10905	8.05	3
0	10942	8.1	3
0	10943	8.1	3
0	10944	8.1	3
0	10945	8.1	3
0	10946	8.1	3
0	10947	8.1	3
0	10948	8.1	3
0	10949	8.1	3
0	10995	8.15	3
0	10996	8.15	3
0	10997	8.15	3
0	10998	8.15	3
0	11031	8.2	3
0	11032	8.2	3
0	11033	8.2	3
0	11034	8.2	3
0	11035	8.2	3
0	11036	8.2	3
0	11037	8.2	3
0	11038	8.2	3
0	11079	8.25	3
0	11080	8.25	3
0	11081	8.25	3
0	11082	8.25	3
0	11321	8.3	3
0	11322	8.3	3
0	11323	8.3	3
0	11324	8.3	3
0	11325	8.3	3
0	11326	8.3	3
0	11327	8.3	3
0	11328	8.3	3
0	11502	8.35	3
0	11503	8.35	3
0	11504	8.35	3
0	11505	8.35	3
0	11538	8.4	3
0	11539	8.4	3
0	11540	8.4	3
0	11541	8.4	3
0	11542	8.4	3
0	11543	8.4	3
0	11544	8.4	3
0	11545	8.4	3
0	11586	8.45	3
0	11587	8.45	3
0	11588	8.45	3
0	11589	8.45	3
0	11622	8.5	3
0	11623	8.5	3
0	11624	8.5	3
0	11625	8.5	3
0	11626	8.5	3
0	11627	8.5	3
0	11628	8.5	3
0	11629	8.5	3
0	11670	8.55	3
0	11671	8.55	3
0	11672	8.55	3
0	11673	8.55	3
0	11706	8.6	3
0	11707	8.6	3
0	11708	8.6	3
0	11709	8.6	3
0	11710	8.6	3
0	11711	8.6	3
0	11712	8.6	3
0	11713	8.6	3
0	11754	8.65	3
0	11755	8.65	3
0	11756	8.65	3
0	11757	8.65	3
0	11790	8.7	3
0	11791	8.7	3
0	11792	8.7	3
0	11793	8.7	3
0	11794	8.7	3
0	11795	8.7	3
0	11796	8.7	3
0	11797	8.7	3
0	11838	8.75	3
0	11839	8.75	3
0	11840	8.75	3
0	11841	8.75	3
0	11874	8.8	3
0	11875	8.8	3
0	11876	8.8	3
0	11877	8.8	3
0	11878	8.8	3
0	11879	8.8	3
0	11880	8.8	3
0	11881	8.8	3
0	12126	8.85	3
0	12127	8.85	3
0	12128	8.85	3
0	12129	8.85	3
0	12234	8.9	3
0	12235	8.9	3
0	12236	8.9	3
0	12237	8.9	3
0	12238	8.9	3
0	12239	8.9	3
0	12240	8.9	3
0	12241	8.9	3
0	12282	8.95	3
0	12283	8.95	3
0	12284	8.95	3
0	12285	8.95	3
0	12318	9	3
0	12319	9	3
0	12320	9	3
0	12321	9	3
0	12322	9	3
0	12323	9	3
0	12324	9	3
0	12325	9	3
0	12366	9.05	3
0	12367	9.05	3
0	12368	9.05	3
0	12369	9.05	3
0	12406	9.1	3
0	12407	9.1	3
0	12408	9.1	3
0	12409	9.1	3
0	12410	9.1	3
0	12411	9.1	3
0	12412	9.1	3
0	12413	9.1	3
0	12459	9.15	3
0	12460	9.15	3
0	12461	9.15	3
0	12462	9.15	3
0	12495	9.2	3
0	12496	9.2	3
0	12497	9.2	3
0	12498	9.2	3
0	12499	9.2	3
0	12500	9.2	3
0	12501	9.2	3
0	12502	9.2	3
0	12543	9.25	3
0	12544	9.25	3
0	12545	9.25	3
0	12546	9.25	3
0	12579	9.3	3
0	12580	9.3	3
0	12581	9.3	3
0	12582	9.3	3
0	12583	9.3	3
0	12584	9.3	3
0	12585	9.3	3
0	12586	9.3	3
0	12627	9.35	3
0	12628	9.35	3
0	12629	9.35	3
0	12630	9.35	3
0	12869	9.4	3
0	12870	9.4	3
0	12871	9.4	3
0	12872	9.4	3
0	12873	9.4	3
0	12874	9.4	3
0	12875	9.4	3
0	12876	9.4	3
0	13050	9.45	3
0	13051	9.45	3
0	13052	9.45	3
0	13053	9.45	3
0	13086	9.5	3
0	13087	9.5	3
0	13088	9.5	3
0	13089	9.5	3
0	13090	9.5	3
0	13091	9.5	3
0	13092	9.5	3
0	13093	9.5	3
0	13134	9.55	3
0	13135	9.55	3
0	13136	9.55	3
0	13137	9.55	3
0	13170	9.6	3
0	13171	9.6	3
0	13172	9.6	3
0	13173	9.6	3
0	13174	9.6	3
0	13175	9.6	3
0	13176	9.6	3
0	13177	9.6	3
0	13218	9.65	3
0	13219	9.65	3
0	13220	9.65	3
0	13221	9.65	3
0	13254	9.7	3
0	13255	9.7	3
0	13256	9.7	3
0	13257	9.7	3
0	13258	9.7	3
0	13259	9.7	3
0	13260	9.7	3
0	13261	9.7	3
0	13302	9.75	3
0	13303	9.75	3
0	13304	9.75	3
0	13305	9.75	3
0	13338	9.8	3
0	13339	9.8	3
0	13340	9.8	3
0	13341	9.8	3
0	13342	9.8	3
0	13343	9.8	3
0	13344	9.8	3
0	13345	9.8	3
0	13386	9.85	3
0	13387	9.85	3
0	13388	9.85	3
0	13389	9.85	3
0	13422	9.9	3
0	13423	9.9	3
0	13424	9.9	3
0	13425	9.9	3
0	13426	9.9	3
0	13427	9.9	3
0	13428	9.9	3
0	13429	9.9	3
0	13674	9.95	3
0	13675	9.95	3
0	13676	9.95	3
0	13677	9.95	3
0	13782	10	3
0	13783	10	3
0	13784	10	3
0	13785	10	3
0	13786	10	3
0	13787	10	3
0	13788	10	3
0	13789	10	3
0	13830	10.05	3
0	13831	10.05	3
0	13832	10.05	3
0	13833	10.05	3
0	13870	10.1	3
0	13871	10.1	3
0	13872	10.1	3
0	13873	10.1	3
0	13874	10.1	3
0	13875	10.1	3
0	13876	10.1	3
0	13877	10.1	3
0	13923	10.15	3
0	13924	10.15	3
0	13925	10.15	3
0	13926	10.15	3
0	13959	10.2	3
0	13960	10.2	3
0	13961	10.2	3
0	13962	10.2	3
0	13963	10.2	3
0	13964	10.2	3
0	13965	10.2	3
0	13966	10.2	3
0	14007	10.25	3
0	14008	10.25	3
0	14009	10.25	3
0	14010	10.25	3
0	14043	10.3	3
0	14044	10.3	3
0	14045	10.3	3
0	14046	10.3	3
0	14047	10.3	3
0	14048	10.3	3
0	14049	10.3	3
0	14050	10.3	3
0	14091	10.35	3
0	14092	10.35	3
0	14093	10.35	3
0	14094	10.35	3
0	14127	10.4	3
0	14128	10.4	3
0	14129	10.4	3
0	14130	10.4	3
0	14131	10.4	3
0	14132	10.4	3
0	14133	10.4	3
0	14134	10.4	3
0	14175	10.45	3
0	14176	10.45	3
0	14177	10.45	3
0	14178	10.45	3
0	14417	10.5	3
0	14418	10.5	3
0	14419	10.5	3
0	14420	10.5	3
0	14421	10.5	3
0	14422	10.5	3
0	14423	10.5	3
0	14424	10.5	3
0	14598	10.55	3
0	14599	10.55	3
0	14600	10.55	3
0	14601	10.55	3
0	14634	10.6	3
0	14635	10.6	3
0	14636	10.6	3
0	14637	10.6	3
0	14638	10.6	3
0	14639	10.6	3
0	14640	10.6	3
0	14641	10.6	3
0	14682	10.65	3
0	14683	10.65	3
0	14684	10.65	3
0	14685	10.65	3
0	14718	10.7	3
0	14719	10.7	3
0	14720	10.7	3
0	14721	10.7	3
0	14722	10.7	3
0	14723	10.7	3
0	14724	10.7	3
0	14725	10.7	3
0	14766	10.75	3
0	14767	10.75	3
0	14768	10.75	3
0	14769	10.75	3
0	14802	10.8	3
0	14803	10.8	3
0	14804	10.8	3
0	14805	10.8	3
0	14806	10.8	3
0	14807	10.8	3
0	14808	10.8	3
0	14809	10.8	3
0	14850	10.85	3
0	14851	10.85	3
0	14852	10.85	3
0	14853	10.85	3
0	14886	10.9	3
0	14887	10.9	3
0	14888	10.9	3
0	14889	10.9	3
0	14890	10.9	3
0	14891	10.9	3
0	14892	10.9	3
0	14893	10.9	3
0	14934	10.95	3
0	14935	10.95	3
0	14936	10.95	3
0	14937	10.95	3
0	14970	11	3
0	14971	11	3
0	14972	11	3
0	14973	11	3
0	14974	11	3
0	14975	11	3
0	14976	11	3
0	14977	11	3
0	15222	11.05	3
0	15223	11.05	3
0	15224	11.05	3
0	15225	11.05	3
0	15334	11.1	3
0	15335	11.1	3
0	15336	11.1	3
0	15337	11.1	3
0	15338	11.1	3
0	15339	11.1	3
0	15340	11.1	3
0	15341	11.1	3
0	15387	11.15	3
0	15388	11.15	3
0	15389	11.15	3
0	15390	11.15	3
0	15423	11.2	3
0	15424	11.2	3
0	15425	11.2	3
0	15426	11.2	3
0	15427	11.2	3
0	15428	11.2	3
0	15429	11.2	3
0	15430	11.2	3
0	15471	11.25	3
0	15472	11.25	3
0	15473	11.25	3
0	15474	11.25	3
0	15507	11.3	3
0	15508	11.3	3
0	15509	11.3	3
0	15510	11.3	3
0	15511	11.3	3
0	15512	11.3	3
0	15513	11.3	3
0	15514	11.3	3
0	15555	11.35	3
0	15556	11.35	3
0	15557	11.35	3
0	15558	11.35	3
0	15591	11.4	3
0	15592	11.4	3
0	15593	11.4	3
0	15594	11.4	3
0	15595	11.4	3
0	15596	11.4	3
0	15597	11.4	3
0	15598	11.4	3
0	15639	11.45	3
0	15640	11.45	3
0	15641	11.45	3
0	15642	11.45	3
0	15676	11.5	3
0	15677	11.5	3
0	15678	11.5	3
0	15679	11.5	3
0	15680	11.5	3
0	15681	11.5	3
0	15682	11.5	3
0	15683	11.5	3
0	15724	11.55	3
0	15725	11.55	3
0	15726	11.55	3
0	15727	11.55	3
0	15966	11.6	3
0	15967	11.6	3
0	15968	11.6	3
0	15969	11.6	3
0	15970	11.6	3
0	15971	11.6	3
0	15972	11.6	3
0	15973	11.6	3
0	16147	11.65	3
0	16148	11.65	3
0	16149	11.65	3
0	16150	11.65	3
0	16183	11.7	3
0	16184	11.7	3
0	16185	11.7	3
0	16186	11.7	3
0	16187	11.7	3
0	16188	11.7	3
0	16189	11.7	3
0	16190	11.7	3
0	16231	11.75	3
0	16232	11.75	3
0	16233	11.75	3
0	16234	11.75	3
0	16267	11.8	3
0	16268	11.8	3
0	16269	11.8	3
0	16270	11.8	3
0	16271	11.8	3
0	16272	11.8	3
0	16273	11.8	3
0	16274	11.8	3
0	16315	11.85	3
0	16316	11.85	3
0	16317	11.85	3
0	16318	11.85	3
0	16351	11.9	3
0	16352	11.9	3
0	16353	11.9	3
0	16354	11.9	3
0	16355	11.9	3
0	16356	11.9	3
0	16357	11.9	3
0	16358	11.9	3
0	16399	11.95	3
0	16400	11.95	3
0	16401	11.95	3
0	16402	11.95	3
0	16438	12	3
0	16439	12	3
0	16440	12	3
0	16441	12	3
0	16442	12	3
0	16443	12	3
0	16444	12	3
0	16445	12	3
0	16486	12.05	3
0	16487	12.05	3
0	16488	12.05	3
0	16489	12.05	3
0	16526	12.1	3
0	16527	12.1	3
0	16528	12.1	3
0	16529	12.1	3
0	16530	12.1	3
0	16531	12.1	3
0	16532	12.1	3
0	16533	12.1	3
0	16785	12.15	3
0	16786	12.15	3
0	16787	12.15	3
0	16788	12.15	3
0	16954	12.2	3
0	16955	12.2	3
0	16956	12.2	3
0	16957	12.2	3
0	16958	12.2	3
0	16959	12.2	3
0	16960	12.2	3
0	16961	12.2	3
0	17002	12.25	3
0	17003	12.25	3
0	17004	12.25	3
0	17005	12.25	3
0	17038	12.3	3
0	17039	12.3	3
0	17040	12.3	3
0	17041	12.3	3
0	17042	12.3	3
0	17043	12.3	3
0	17044	12.3	3
0	17045	12.3	3
0	17086	12.35	3
0	17087	12.35	3
0	17088	12.35	3
0	17089	12.35	3
0	17122	12.4	3
0	17123	12.4	3
0	17124	12.4	3
0	17125	12.4	3
0	17126	12.4	3
0	17127	12.4	3
0	17128	12.4	3
0	17129	12.4	3
0	17170	12.45	3
0	17171	12.45	3
0	17172	12.45	3
0	17173	12.45	3
0	17207	12.5	3
0	17208	12.5	3
0	17209	12.5	3
0	17210	12.5	3
0	17211	12.5	3
0	17212	12.5	3
0	17213	12.5	3
0	17214	12.5	3
0	17255	12.55	3
0	17256	12.55	3
0	17257	12.55	3
0	17258	12.55	3
0	17291	12.6	3
0	17292	12.6	3
0	17293	12.6	3
0	17294	12.6	3
0	17295	12.6	3
0	17296	12.6	3
0	17297	12.6	3
0	17298	12.6	3
0	17339	12.65	3
0	17340	12.65	3
0	17341	12.65	3
0	17342	12.65	3
0	17579	12.7	3
0	17580	12.7	3
0	17581	12.7	3
0	17582	12.7	3
0	17583	12.7	3
0	17584	12.7	3
0	17585	12.7	3
0	17586	12.7	3
0	17699	12.75	3
0	17700	12.75	3
0	17701	12.75	3
0	17702	12.75	3
0	17735	12.8	3
0	17736	12.8	3
0	17737	12.8	3
0	17738	12.8	3
0	17739	12.8	3
0	17740	12.8	3
0	17741	12.8	3
0	17742	12.8	3
0	17783	12.85	3
0	17784	12.85	3
0	17785	12.85	3
0	17786	12.85	3
0	17819	12.9	3
0	17820	12.9	3
0	17821	12.9	3
0	17822	12.9	3
0	17823	12.9	3
0	17824	12.9	3
0	17825	12.9	3
0	17826	12.9	3
0	17867	12.95	3
0	17868	12.95	3
0	17869	12.95	3
0	17870	12.95	3
0	17906	13	3
0	17907	13	3
0	17908	13	3
0	17909	13	3
0	17910	13	3
0	17911	13	3
0	17912	13	3
0	17913	13	3
0	17954	13.05	3
0	17955	13.05	3
0	17956	13.05	3
0	17957	13.05	3
0	17994	13.1	3
0	17995	13.1	3
0	17996	13.1	3
0	17997	13.1	3
0	17998	13.1	3
0	17999	13.1	3
0	18000	13.1	3
0	18001	13.1	3
0	18047	13.15	3
0	18048	13.15	3
0	18049	13.15	3
0	18050	13.15	3
0	18083	13.2	3
0	18084	13.2	3
0	18085	13.2	3
0	18086	13.2	3
0	18087	13.2	3
0	18088	13.2	3
0	18089	13.2	3
0	18090	13.2	3
0	18337	13.25	3
0	18338	13.25	3
0	18339	13.25	3
0	18340	13.25	3
0	18506	13.3	3
0	18507	13.3	3
0	18508	13.3	3
0	18509	13.3	3
0	18510	13.3	3
0	18511	13.3	3
0	18512	13.3	3
0	18513	13.3	3
0	18554	13.35	3
0	18555	13.35	3
0	18556	13.35	3
0	18557	13.35	3
0	18590	13.4	3
0	18591	13.4	3
0	18592	13.4	3
0	18593	13.4	3
0	18594	13.4	3
0	18595	13.4	3
0	18596	13.4	3
0	18597	13.4	3
0	18638	13.45	3
0	18639	13.45	3
0	18640	13.45	3
0	18641	13.45	3
0	18675	13.5	3
0	18676	13.5	3
0	18677	13.5	3
0	18678	13.5	3
0	18679	13.5	3
0	18680	13.5	3
0	18681	13.5	3
0	18682	13.5	3
0	18723	13.55	3
0	18724	13.55	3
0	18725	13.55	3
0	18726	13.55	3
0	18759	13.6	3
0	18760	13.6	3
0	18761	13.6	3
0	18762	13.6	3
0	18763	13.6	3
0	18764	13.6	3
0	18765	13.6	3
0	18766	13.6	3
0	18807	13.65	3
0	18808	13.65	3
0	18809	13.65	3
0	18810	13.65	3
0	18843	13.7	3
0	18844	13.7	3
0	18845	13.7	3
0	18846	13.7	3
0	18847	13.7	3
0	18848	13.7	3
0	18849	13.7	3
0	18850	13.7	3
0	18891	13.75	3
0	18892	13.75	3
0	18893	13.75	3
0	18894	13.75	3
0	19131	13.8	3
0	19132	13.8	3
0	19133	13.8	3
0	19134	13.8	3
0	19135	13.8	3
0	19136	13.8	3
0	19137	13.8	3
0	19138	13.8	3
0	19251	13.85	3
0	19252	13.85	3
0	19253	13.85	3
0	19254	13.85	3
0	19287	13.9	3
0	19288	13.9	3
0	19289	13.9	3
0	19290	13.9	3
0	19291	13.9	3
0	19292	13.9	3
0	19293	13.9	3
0	19294	13.9	3
0	19335	13.95	3
0	19336	13.95	3
0	19337	13.95	3
0	19338	13.95	3
0	19374	14	3
0	19375	14	3
0	19376	14	3
0	19377	14	3
0	19378	14	3
0	19379	14	3
0	19380	14	3
0	19381	14	3
0	19422	14.05	3
0	19423	14.05	3
0	19424	14.05	3
0	19425	14.05	3
0	19462	14.1	3
0	19463	14.1	3
0	19464	14.1	3
0	19465	14.1	3
0	19466	14.1	3
0	19467	14.1	3
0	19468	14.1	3
0	19469	14.1	3
0	19515	14.15	3
0	19516	14.15	3
0	19517	14.15	3
0	19518	14.15	3
0	19551	14.2	3
0	19552	14.2	3
0	19553	14.2	3
0	19554	14.2	3
0	19555	14.2	3
0	19556	14.2	3
0	19557	14.2	3
0	19558	14.2	3
0	19599	14.25	3
0	19600	14.25	3
0	19601	14.25	3
0	19602	14.25	3
0	19635	14.3	3
0	19636	14.3	3
0	19637	14.3	3
0	19638	14.3	3
0	19639	14.3	3
0	19640	14.3	3
0	19641	14.3	3
0	19642	14.3	3
0	19889	14.35	3
0	19890	14.35	3
0	19891	14.35	3
0	19892	14.35	3
0	20058	14.4	3
0	20059	14.4	3
0	20060	14.4	3
0	20061	14.4	3
0	20062	14.4	3
0	20063	14.4	3
0	20064	14.4	3
0	20065	14.4	3
0	20106	14.45	3
0	20107	14.45	3
0	20108	14.45	3
0	20109	14.45	3
0	20143	14.5	3
0	20144	14.5	3
0	20145	14.5	3
0	20146	14.5	3
0	20147	14.5	3
0	20148	14.5	3
0	20149	14.5	3
0	20150	14.5	3
0	20191	14.55	3
0	20192	14.55	3
0	20193	14.55	3
0	20194	14.55	3
0	20227	14.6	3
0	20228	14.6	3
0	20229	14.6	3
0	20230	14.6	3
0	20231	14.6	3
0	20232	14.6	3
0	20233	14.6	3
0	20234	14.6	3
0	20275	14.65	3
0	20276	14.65	3
0	20277	14.65	3
0	20278	14.65	3
0	20311	14.7	3
0	20312	14.7	3
0	20313	14.7	3
0	20314	14.7	3
0	20315	14.7	3
0	20316	14.7	3
0	20317	14.7	3
0	20318	14.7	3
0	20359	14.75	3
0	20360	14.75	3
0	20361	14.75	3
0	20362	14.75	3
0	20395	14.8	3
0	20396	14.8	3
0	20397	14.8	3
0	20398	14.8	3
0	20399	14.8	3
0	20400	14.8	3
0	20401	14.8	3
0	20402	14.8	3
0	20443	14.85	3
0	20444	14.85	3
0	20445	14.85	3
0	20446	14.85	3
0	20683	14.9	3
0	20684	14.9	3
0	20685	14.9	3
0	20686	14.9	3
0	20687	14.9	3
0	20688	14.9	3
0	20689	14.9	3
0	20690	14.9	3
0	20803	14.95	3
0	20804	14.95	3
0	20805	14.95	3
0	20806	14.95	3
0	20842	15	3
0	20843	15	3
0	20844	15	3
0	20845	15	3
0	20846	15	3
0	20847	15	3
0	20848	15	3
0	20849	15	3
0	20890	15.05	3
0	20891	15.05	3
0	20892	15.05	3
0	20893	15.05	3
0	20930	15.1	3
0	20931	15.1	3
0	20932	15.1	3
0	20933	15.1	3
0	20934	15.1	3
0	20935	15.1	3
0	20936	15.1	3
0	20937	15.1	3
0	20983	15.15	3
0	20984	15.15	3
0	20985	15.15	3
0	20986	15.15	3
0	21019	15.2	3
0	21020	15.2	3
0	21021	15.2	3
0	21022	15.2	3
0	21023	15.2	3
0	21024	15.2	3
0	21025	15.2	3
0	21026	15.2	3
0	21067	15.25	3
0	21068	15.25	3
0	21069	15.25	3
0	21070	15.25	3
0	21103	15.3	3
0	21104	15.3	3
0	21105	15.3	3
0	21106	15.3	3
0	21107	15.3	3
0	21108	15.3	3
0	21109	15.3	3
0	21110	15.3	3
0	21151	15.35	3
0	21152	15.35	3
0	21153	15.35	3
0	21154	15.35	3
0	21187	15.4	3
0	21188	15.4	3
0	21189	15.4	3
0	21190	15.4	3
0	21191	15.4	3
0	21192	15.4	3
0	21193	15.4	3
0	21194	15.4	3
0	21441	15.45	3
0	21442	15.45	3
0	21443	15.45	3
0	21444	15.45	3
0	21611	15.5	3
0	21612	15.5	3
0	21613	15.5	3
0	21614	15.5	3
0	21615	15.5	3
0	21616	15.5	3
0	21617	15.5	3
0	21618	15.5	3
0	21659	15.55	3
0	21660	15.55	3
0	21661	15.55	3
0	21662	15.55	3
0	21695	15.6	3
0	21696	15.6	3
0	21697	15.6	3
0	21698	15.6	3
0	21699	15.6	3
0	21700	15.6	3
0	21701	15.6	3
0	21702	15.6	3
0	21743	15.65	3
0	21744	15.65	3
0	21745	15.65	3
0	21746	15.65	3
0	21779	15.7	3
0	21780	15.7	3
0	21781	15.7	3
0	21782	15.7	3
0	21783	15.7	3
0	21784	15.7	3
0	21785	15.7	3
0	21786	15.7	3
0	21827	15.75	3
0	21828	15.75	3
0	21829	15.75	3
0	21830	15.75	3
0	21863	15.8	3
0	21864	15.8	3
0	21865	15.8	3
0	21866	15.8	3
0	21867	15.8	3
0	21868	15.8	3
0	21869	15.8	3
0	21870	15.8	3
0	21911	15.85	3
0	21912	15.85	3
0	21913	15.85	3
0	21914	15.85	3
0	21947	15.9	3
0	21948	15.9	3
0	21949	15.9	3
0	21950	15.9	3
0	21951	15.9	3
0	21952	15.9	3
0	21953	15.9	3
0	21954	15.9	3
0	21995	15.95	3
0	21996	15.95	3
0	21997	15.95	3
0	21998	15.95	3
0	22238	16	3
0	22239	16	3
0	22240	16	3
0	22241	16	3
0	22242	16	3
0	22243	16	3
0	22244	16	3
0	22245	16	3
0	22358	16.05	3
0	22359	16.05	3
0	22360	16.05	3
0	22361	16.05	3
0	22398	16.1	3
0	22399	16.1	3
0	22400	16.1	3
0	22401	16.1	3
0	22402	16.1	3
0	22403	16.1	3
0	22404	16.1	3
0	22405	16.1	3
0	22451	16.15	3
0	22452	16.15	3
0	22453	16.15	3
0	22454	16.15	3
0	22487	16.2	3
0	22488	16.2	3
0	22489	16.2	3
0	22490	16.2	3
0	22491	16.2	3
0	22492	16.2	3
0	22493	16.2	3
0	22494	16.2	3
0	22535	16.25	3
0	22536	16.25	3
0	22537	16.25	3
0	22538	16.25	3
0	22571	16.3	3
0	22572	16.3	3
0	22573	16.3	3
0	22574	16.3	3
0	22575	16.3	3
0	22576	16.3	3
0	22577	16.3	3
0	22578	16.3	3
0	22619	16.35	3
0	22620	16.35	3
0	22621	16.35	3
0	22622	16.35	3
0	22655	16.4	3
0	22656	16.4	3
0	22657	16.4	3
0	22658	16.4	3
0	22659	16.4	3
0	22660	16.4	3
0	22661	16.4	3
0	22662	16.4	3
0	22703	16.45	3
0	22704	16.45	3
0	22705	16.45	3
0	22706	16.45	3
0	22740	16.5	3
0	22741	16.5	3
0	22742	16.5	3
0	22743	16.5	3
0	22744	16.5	3
0	22745	16.5	3
0	22746	16.5	3
0	22747	16.5	3
0	22994	16.55	3
0	22995	16.55	3
0	22996	16.55	3
0	22997	16.55	3
0	23163	16.6	3
0	23164	16.6	3
0	23165	16.6	3
0	23166	16.6	3
0	23167	16.6	3
0	23168	16.6	3
0	23169	16.6	3
0	23170	16.6	3
0	23211	16.65	3
0	23212	16.65	3
0	23213	16.65	3
0	23214	16.65	3
0	23247	16.7	3
0	23248	16.7	3
0	23249	16.7	3
0	23250	16.7	3
0	23251	16.7	3
0	23252	16.7	3
0	23253	16.7	3
0	23254	16.7	3
0	23295	16.75	3
0	23296	16.75	3
0	23297	16.75	3
0	23298	16.75	3
0	23331	16.8	3
0	23332	16.8	3
0	23333	16.8	3
0	23334	16.8	3
0	23335	16.8	3
0	23336	16.8	3
0	23337	16.8	3
0	23338	16.8	3
0	23379	16.85	3
0	23380	16.85	3
0	23381	16.85	3
0	23382	16.85	3
0	23415	16.9	3
0	23416	16.9	3
0	23417	16.9	3
0	23418	16.9	3
0	23419	16.9	3
0	23420	16.9	3
0	23421	16.9	3
0	23422	16.9	3
0	23463	16.95	3
0	23464	16.95	3
0	23465	16.95	3
0	23466	16.95	3
0	23502	17	3
0	23503	17	3
0	23504	17	3
0	23505	17	3
0	23506	17	3
0	23507	17	3
0	23508	17	3
0	23509	17	3
0	23550	17.05	3
0	23551	17.05	3
0	23552	17.05	3
0	23553	17.05	3
0	23794	17.1	3
0	23795	17.1	3
0	23796	17.1	3
0	23797	17.1	3
0	23798	17.1	3
0	23799	17.1	3
0	23800	17.1	3
0	23801	17.1	3
0	23961	17.15	3
0	23962	17.15	3
0	23963	17.15	3
0	23964	17.15	3
0	23997	17.2	3
0	23998	17.2	3
0	23999	17.2	3
0	24000	17.2	3
0	24001	17.2	3
0	24002	17.2	3
0	24003	17.2	3
0	24004	17.2	3
0	24045	17.25	3
0	24046	17.25	3
0	24047	17.25	3
0	24048	17.25	3
0	24081	17.3	3
0	24082	17.3	3
0	24083	17.3	3
0	24084	17.3	3
0	24085	17.3	3
0	24086	17.3	3
0	24087	17.3	3
0	24088	17.3	3
0	24129	17.35	3
0	24130	17.35	3
0	24131	17.35	3
0	24132	17.35	3
0	24165	17.4	3
0	24166	17.4	3
0	24167	17.4	3
0	24168	17.4	3
0	24169	17.4	3
0	24170	17.4	3
0	24171	17.4	3
0	24172	17.4	3
0	24213	17.45	3
0	24214	17.45	3
0	24215	17.45	3
0	24216	17.45	3
0	24250	17.5	3
0	24251	17.5	3
0	24252	17.5	3
0	24253	17.5	3
0	24254	17.5	3
0	24255	17.5	3
0	24256	17.5	3
0	24257	17.5	3
0	24298	17.55	3
0	24299	17.55	3
0	24300	17.55	3
0	24301	17.55	3
0	24334	17.6	3
0	24335	17.6	3
0	24336	17.6	3
0	24337	17.6	3
0	24338	17.6	3
0	24339	17.6	3
0	24340	17.6	3
0	24341	17.6	3
0	24588	17.65	3
0	24589	17.65	3
0	24590	17.65	3
0	24591	17.65	3
0	24715	17.7	3
0	24716	17.7	3
0	24717	17.7	3
0	24718	17.7	3
0	24719	17.7	3
0	24720	17.7	3
0	24721	17.7	3
0	24722	17.7	3
0	24763	17.75	3
0	24764	17.75	3
0	24765	17.75	3
0	24766	17.75	3
0	24799	17.8	3
0	24800	17.8	3
0	24801	17.8	3
0	24802	17.8	3
0	24803	17.8	3
0	24804	17.8	3
0	24805	17.8	3
0	24806	17.8	3
0	24847	17.85	3
0	24848	17.85	3
0	24849	17.85	3
0	24850	17.85	3
0	24883	17.9	3
0	24884	17.9	3
0	24885	17.9	3
0	24886	17.9	3
0	24887	17.9	3
0	24888	17.9	3
0	24889	17.9	3
0	24890	17.9	3
0	24931	17.95	3
0	24932	17.95	3
0	24933	17.95	3
0	24934	17.95	3
0	24970	18	3
0	24971	18	3
0	24972	18	3
0	24973	18	3
0	24974	18	3
0	24975	18	3
0	24976	18	3
0	24977	18	3
0	25018	18.05	3
0	25019	18.05	3
0	25020	18.05	3
0	25021	18.05	3
0	25058	18.1	3
0	25059	18.1	3
0	25060	18.1	3
0	25061	18.1	3
0	25062	18.1	3
0	25063	18.1	3
0	25064	18.1	3
0	25065	18.1	3
0	25111	18.15	3
0	25112	18.15	3
0	25113	18.15	3
0	25114	18.15	3
0	25353	18.2	3
0	25354	18.2	3
0	25355	18.2	3
0	25356	18.2	3
0	25357	18.2	3
0	25358	18.2	3
0	25359	18.2	3
0	25360	18.2	3
0	25534	18.25	3
0	25535	18.25	3
0	25536	18.25	3
0	25537	18.25	3
0	25570	18.3	3
0	25571	18.3	3
0	25572	18.3	3
0	25573	18.3	3
0	25574	18.3	3
0	25575	18.3	3
0	25576	18.3	3
0	25577	18.3	3
0	25618	18.35	3
0	25619	18.35	3
0	25620	18.35	3
0	25621	18.35	3
0	25654	18.4	3
0	25655	18.4	3
0	25656	18.4	3
0	25657	18.4	3
0	25658	18.4	3
0	25659	18.4	3
0	25660	18.4	3
0	25661	18.4	3
0	25702	18.45	3
0	25703	18.45	3
0	25704	18.45	3
0	25705	18.45	3
0	25739	18.5	3
0	25740	18.5	3
0	25741	18.5	3
0	25742	18.5	3
0	25743	18.5	3
0	25744	18.5	3
0	25745	18.5	3
0	25746	18.5	3
0	25787	18.55	3
0	25788	18.55	3
0	25789	18.55	3
0	25790	18.55	3
0	25823	18.6	3
0	25824	18.6	3
0	25825	18.6	3
0	25826	18.6	3
0	25827	18.6	3
0	25828	18.6	3
0	25829	18.6	3
0	25830	18.6	3
0	25871	18.65	3
0	25872	18.65	3
0	25873	18.65	3
0	25874	18.65	3
0	25907	18.7	3
0	25908	18.7	3
0	25909	18.7	3
0	25910	18.7	3
0	25911	18.7	3
0	25912	18.7	3
0	25913	18.7	3
0	25914	18.7	3
0	26159	18.75	3
0	26160	18.75	3
0	26161	18.75	3
0	26162	18.75	3
0	26267	18.8	3
0	26268	18.8	3
0	26269	18.8	3
0	26270	18.8	3
0	26271	18.8	3
0	26272	18.8	3
0	26273	18.8	3
0	26274	18.8	3
0	26315	18.85	3
0	26316	18.85	3
0	26317	18.85	3
0	26318	18.85	3
0	26351	18.9	3
0	26352	18.9	3
0	26353	18.9	3
0	26354	18.9	3
0	26355	18.9	3
0	26356	18.9	3
0	26357	18.9	3
0	26358	18.9	3
0	26399	18.95	3
0	26400	18.95	3
0	26401	18.95	3
0	26402	18.95	3
0	26438	19	3
0	26439	19	3
0	26440	19	3
0	26441	19	3
0	26442	19	3
0	26443	19	3
0	26444	19	3
0	26445	19	3
0	26486	19.05	3
0	26487	19.05	3
0	26488	19.05	3
0	26489	19.05	3
0	26526	19.1	3
0	26527	19.1	3
0	26528	19.1	3
0	26529	19.1	3
0	26530	19.1	3
0	26531	19.1	3
0	26532	19.1	3
0	26533	19.1	3
0	26579	19.15	3
0	26580	19.15	3
0	26581	19.15	3
0	26582	19.15	3
0	26615	19.2	3
0	26616	19.2	3
0	26617	19.2	3
0	26618	19.2	3
0	26619	19.2	3
0	26620	19.2	3
0	26621	19.2	3
0	26622	19.2	3
0	26663	19.25	3
0	26664	19.25	3
0	26665	19.25	3
0	26666	19.25	3
0	26905	19.3	3
0	26906	19.3	3
0	26907	19.3	3
0	26908	19.3	3
0	26909	19.3	3
0	26910	19.3	3
0	26911	19.3	3
0	26912	19.3	3
0	27086	19.35	3
0	27087	19.35	3
0	27088	19.35	3
0	27089	19.35	3
0	27122	19.4	3
0	27123	19.4	3
0	27124	19.4	3
0	27125	19.4	3
0	27126	19.4	3
0	27127	19.4	3
0	27128	19.4	3
0	27129	19.4	3
0	27170	19.45	3
0	27171	19.45	3
0	27172	19.45	3
0	27173	19.45	3
0	27207	19.5	3
0	27208	19.5	3
0	27209	19.5	3
0	27210	19.5	3
0	27211	19.5	3
0	27212	19.5	3
0	27213	19.5	3
0	27214	19.5	3
0	27255	19.55	3
0	27256	19.55	3
0	27257	19.55	3
0	27258	19.55	3
0	27291	19.6	3
0	27292	19.6	3
0	27293	19.6	3
0	27294	19.6	3
0	27295	19.6	3
0	27296	19.6	3
0	27297	19.6	3
0	27298	19.6	3
0	27339	19.65	3
0	27340	19.65	3
0	27341	19.65	3
0	27342	19.65	3
0	27375	19.7	3
0	27376	19.7	3
0	27377	19.7	3
0	27378	19.7	3
0	27379	19.7	3
0	27380	19.7	3
0	27381	19.7	3
0	27382	19.7	3
0	27423	19.75	3
0	27424	19.75	3
0	27425	19.75	3
0	27426	19.75	3
0	27459	19.8	3
0	27460	19.8	3
0	27461	19.8	3
0	27462	19.8	3
0	27463	19.8	3
0	27464	19.8	3
0	27465	19.8	3
0	27466	19.8	3
0	27711	19.85	3
0	27712	19.85	3
0	27713	19.85	3
0	27714	19.85	3
0	27819	19.9	3
0	27820	19.9	3
0	27821	19.9	3
0	27822	19.9	3
0	27823	19.9	3
0	27824	19.9	3
0	27825	19.9	3
0	27826	19.9	3
0	27867	19.95	3
0	27868	19.95	3
0	27869	19.95	3
0	27870	19.95	3
0	27906	20	3
0	27907	20	3
0	27908	20	3
0	27909	20	3
0	27910	20	3
0	27911	20	3
0	27912	20	3
0	27913	20	3
0	27954	20.05	3
0	27955	20.05	3
0	27956	20.05	3
0	27957	20.05	3
0	27994	20.1	3
0	27995	20.1	3
0	27996	20.1	3
0	27997	20.1	3
0	27998	20.1	3
0	27999	20.1	3
0	28000	20.1	3
0	28001	20.1	3
0	28047	20.15	3
0	28048	20.15	3
0	28049	20.15	3
0	28050	20.15	3
0	28083	20.2	3
0	28084	20.2	3
0	28085	20.2	3
0	28086	20.2	3
0	28087	20.2	3
0	28088	20.2	3
0	28089	20.2	3
0	28090	20.2	3
0	28131	20.25	3
0	28132	20.25	3
0	28133	20.25	3
0	28134	20.25	3
0	28167	20.3	3
0	28168	20.3	3
0	28169	20.3	3
0	28170	20.3	3
0	28171	20.3	3
0	28172	20.3	3
0	28173	20.3	3
0	28174	20.3	3
0	28215	20.35	3
0	28216	20.35	3
0	28217	20.35	3
0	28218	20.35	3
0	28457	20.4	3
0	28458	20.4	3
0	28459	20.4	3
0	28460	20.4	3
0	28461	20.4	3
0	28462	20.4	3
0	28463	20.4	3
0	28464	20.4	3
0	28638	20.45	3
0	28639	20.45	3
0	28640	20.45	3
0	28641	20.45	3
0	28675	20.5	3
0	28676	20.5	3
0	28677	20.5	3
0	28678	20.5	3
0	28679	20.5	3
0	28680	20.5	3
0	28681	20.5	3
0	28682	20.5	3
0	28723	20.55	3
0	28724	20.55	3
0	28725	20.55	3
0	28726	20.55	3
0	28759	20.6	3
0	28760	20.6	3
0	28761	20.6	3
0	28762	20.6	3
0	28763	20.6	3
0	28764	20.6	3
0	28765	20.6	3
0	28766	20.6	3
0	28807	20.65	3
0	28808	20.65	3
0	28809	20.65	3
0	28810	20.65	3
0	28843	20.7	3
0	28844	20.7	3
0	28845	20.7	3
0	28846	20.7	3
0	28847	20.7	3
0	28848	20.7	3
0	28849	20.7	3
0	28850	20.7	3
0	28891	20.75	3
0	28892	20.75	3
0	28893	20.75	3
0	28894	20.75	3
0	28927	20.8	3
0	28928	20.8	3
0	28929	20.8	3
0	28930	20.8	3
0	28931	20.8	3
0	28932	20.8	3
0	28933	20.8	3
0	28934	20.8	3
0	28975	20.85	3
0	28976	20.85	3
0	28977	20.85	3
0	28978	20.85	3
0	29011	20.9	3
0	29012	20.9	3
0	29013	20.9	3
0	29014	20.9	3
0	29015	20.9	3
0	29016	20.9	3
0	29017	20.9	3
0	29018	20.9	3
0	29263	20.95	3
0	29264	20.95	3
0	29265	20.95	3
0	29266	20.95	3
0	29374	21	3
0	29375	21	3
0	29376	21	3
0	29377	21	3
0	29378	21	3
0	29379	21	3
0	29380	21	3
0	29381	21	3
0	29422	21.05	3
0	29423	21.05	3
0	29424	21.05	3
0	29425	21.05	3
0	29462	21.1	3
0	29463	21.1	3
0	29464	21.1	3
0	29465	21.1	3
0	29466	21.1	3
0	29467	21.1	3
0	29468	21.1	3
0	29469	21.1	3
0	29515	21.15	3
0	29516	21.15	3
0	29517	21.15	3
0	29518	21.15	3
0	29551	21.2	3
0	29552	21.2	3
0	29553	21.2	3
0	29554	21.2	3
0	29555	21.2	3
0	29556	21.2	3
0	29557	21.2	3
0	29558	21.2	3
0	29599	21.25	3
0	29600	21.25	3
0	29601	21.25	3
0	29602	21.25	3
0	29635	21.3	3
0	29636	21.3	3
0	29637	21.3	3
0	29638	21.3	3
0	29639	21.3	3
0	29640	21.3	3
0	29641	21.3	3
0	29642	21.3	3
0	29683	21.35	3
0	29684	21.35	3
0	29685	21.35	3
0	29686	21.35	3
0	29719	21.4	3
0	29720	21.4	3
0	29721	21.4	3
0	29722	21.4	3
0	29723	21.4	3
0	29724	21.4	3
0	29725	21.4	3
0	29726	21.4	3
0	29767	21.45	3
0	29768	21.45	3
0	29769	21.45	3
0	29770	21.45	3
0	30010	21.5	3
0	30011	21.5	3
0	30012	21.5	3
0	30013	21.5	3
0	30014	21.5	3
0	30015	21.5	3
0	30016	21.5	3
0	30017	21.5	3
0	30191	21.55	3
0	30192	21.55	3
0	30193	21.55	3
0	30194	21.55	3
0	30227	21.6	3
0	30228	21.6	3
0	30229	21.6	3
0	30230	21.6	3
0	30231	21.6	3
0	30232	21.6	3
0	30233	21.6	3
0	30234	21.6	3
0	30275	21.65	3
0	30276	21.65	3
0	30277	21.65	3
0	30278	21.65	3
0	30311	21.7	3
0	30312	21.7	3
0	30313	21.7	3
0	30314	21.7	3
0	30315	21.7	3
0	30316	21.7	3
0	30317	21.7	3
0	30318	21.7	3
0	30359	21.75	3
0	30360	21.75	3
0	30361	21.75	3
0	30362	21.75	3
0	30395	21.8	3
0	30396	21.8	3
0	30397	21.8	3
0	30398	21.8	3
0	30399	21.8	3
0	30400	21.8	3
0	30401	21.8	3
0	30402	21.8	3
0	30443	21.85	3
0	30444	21.85	3
0	30445	21.85	3
0	30446	21.85	3
0	30479	21.9	3
0	30480	21.9	3
0	30481	21.9	3
0	30482	21.9	3
0	30483	21.9	3
0	30484	21.9	3
0	30485	21.9	3
0	30486	21.9	3
0	30527	21.95	3
0	30528	21.95	3
0	30529	21.95	3
0	30530	21.95	3
0	30566	22	3
0	30567	22	3
0	30568	22	3
0	30569	22	3
0	30570	22	3
0	30571	22	3
0	30572	22	3
0	30573	22	3
0	30818	22.05	3
0	30819	22.05	3
0	30820	22.05	3
0	30821	22.05	3
0	30930	22.1	3
0	30931	22.1	3
0	30932	22.1	3
0	30933	22.1	3
0	30934	22.1	3
0	30935	22.1	3
0	30936	22.1	3
0	30937	22.1	3
0	30983	22.15	3
0	30984	22.15	3
0	30985	22.15	3
0	30986	22.15	3
0	31019	22.2	3
0	31020	22.2	3
0	31021	22.2	3
0	31022	22.2	3
0	31023	22.2	3
0	31024	22.2	3
0	31025	22.2	3
0	31026	22.2	3
0	31067	22.25	3
0	31068	22.25	3
0	31069	22.25	3
0	31070	22.25	3
0	31103	22.3	3
0	31104	22.3	3
0	31105	22.3	3
0	31106	22.3	3
0	31107	22.3	3
0	31108	22.3	3
0	31109	22.3	3
0	31110	22.3	3
0	31151	22.35	3
0	31152	22.35	3
0	31153	22.35	3
0	31154	22.35	3
0	31187	22.4	3
0	31188	22.4	3
0	31189	22.4	3
0	31190	22.4	3
0	31191	22.4	3
0	31192	22.4	3
0	31193	22.4	3
0	31194	22.4	3
0	31235	22.45	3
0	31236	22.45	3
0	31237	22.45	3
0	31238	22.45	3
0	31272	22.5	3
0	31273	22.5	3
0	31274	22.5	3
0	31275	22.5	3
0	31276	22.5	3
0	31277	22.5	3
0	31278	22.5	3
0	31279	22.5	3
0	31320	22.55	3
0	31321	22.55	3
0	31322	22.55	3
0	31323	22.55	3
0	31562	22.6	3
0	31563	22.6	3
0	31564	22.6	3
0	31565	22.6	3
0	31566	22.6	3
0	31567	22.6	3
0	31568	22.6	3
0	31569	22.6	3
0	31743	22.65	3
0	31744	22.65	3
0	31745	22.65	3
0	31746	22.65	3
0	31779	22.7	3
0	31780	22.7	3
0	31781	22.7	3
0	31782	22.7	3
0	31783	22.7	3
0	31784	22.7	3
0	31785	22.7	3
0	31786	22.7	3
0	31827	22.75	3
0	31828	22.75	3
0	31829	22.75	3
0	31830	22.75	3
0	31863	22.8	3
0	31864	22.8	3
0	31865	22.8	3
0	31866	22.8	3
0	31867	22.8	3
0	31868	22.8	3
0	31869	22.8	3
0	31870	22.8	3
0	31911	22.85	3
0	31912	22.85	3
0	31913	22.85	3
0	31914	22.85	3
0	31947	22.9	3
0	31948	22.9	3
0	31949	22.9	3
0	31950	22.9	3
0	31951	22.9	3
0	31952	22.9	3
0	31953	22.9	3
0	31954	22.9	3
0	31995	22.95	3
0	31996	22.95	3
0	31997	22.95	3
0	31998	22.95	3
0	32034	23	3
0	32035	23	3
0	32036	23	3
0	32037	23	3
0	32038	23	3
0	32039	23	3
0	32040	23	3
0	32041	23	3
0	32082	23.05	3
0	32083	23.05	3
0	32084	23.05	3
0	32085	23.05	3
0	32122	23.1	3
0	32123	23.1	3
0	32124	23.1	3
0	32125	23.1	3
0	32126	23.1	3
0	32127	23.1	3
0	32128	23.1	3
0	32129	23.1	3
0	32381	23.15	3
0	32382	23.15	3
0	32383	23.15	3
0	32384	23.15	3
0	32550	23.2	3
0	32551	23.2	3
0	32552	23.2	3
0	32553	23.2	3
0	32554	23.2	3
0	32555	23.2	3
0	32556	23.2	3
0	32557	23.2	3
0	32598	23.25	3
0	32599	23.25	3
0	32600	23.25	3
0	32601	23.25	3
0	32634	23.3	3
0	32635	23.3	3
0	32636	23.3	3
0	32637	23.3	3
0	32638	23.3	3
0	32639	23.3	3
0	32640	23.3	3
0	32641	23.3	3
0	32682	23.35	3
0	32683	23.35	3
0	32684	23.35	3
0	32685	23.35	3
0	32718	23.4	3
0	32719	23.4	3
0	32720	23.4	3
0	32721	23.4	3
0	32722	23.4	3
0	32723	23.4	3
0	32724	23.4	3
0	32725	23.4	3
0	32766	23.45	3
0	32767	23.45	3
0	32768	23.45	3
0	32769	23.45	3
0	32803	23.5	3
0	32804	23.5	3
0	32805	23.5	3
0	32806	23.5	3
0	32807	23.5	3
0	32808	23.5	3
0	32809	23.5	3
0	32810	23.5	3
0	32851	23.55	3
0	32852	23.55	3
0	32853	23.55	3
0	32854	23.55	3
0	32887	23.6	3
0	32888	23.6	3
0	32889	23.6	3
0	32890	23.6	3
0	32891	23.6	3
0	32892	23.6	3
0	32893	23.6	3
0	32894	23.6	3
0	32935	23.65	3
0	32936	23.65	3
0	32937	23.65	3
0	32938	23.65	3
0	33175	23.7	3
0	33176	23.7	3
0	33177	23.7	3
0	33178	23.7	3
0	33179	23.7	3
0	33180	23.7	3
0	33181	23.7	3
0	33182	23.7	3
0	33295	23.75	3
0	33296	23.75	3
0	33297	23.75	3
0	33298	23.75	3
0	33331	23.8	3
0	33332	23.8	3
0	33333	23.8	3
0	33334	23.8	3
0	33335	23.8	3
0	33336	23.8	3
0	33337	23.8	3
0	33338	23.8	3
0	33379	23.85	3
0	33380	23.85	3
0	33381	23.85	3
0	33382	23.85	3
0	33415	23.9	3
0	33416	23.9	3
0	33417	23.9	3
0	33418	23.9	3
0	33419	23.9	3
0	33420	23.9	3
0	33421	23.9	3
0	33422	23.9	3
0	33463	23.95	3
0	33464	23.95	3
0	33465	23.95	3
0	33466	23.95	3
0	33502	24	3
0	33503	24	3
0	33504	24	3
0	33505	24	3
0	33506	24	3
0	33507	24	3
0	33508	24	3
0	33509	24	3
0	33550	24.05	3
0	33551	24.05	3
0	33552	24.05	3
0	33553	24.05	3
0	33590	24.1	3
0	33591	24.1	3
0	33592	24.1	3
0	33593	24.1	3
0	33594	24.1	3
0	33595	24.1	3
0	33596	24.1	3
0	33597	24.1	3
0	33643	24.15	3
0	33644	24.15	3
0	33645	24.15	3
0	33646	24.15	3
0	33679	24.2	3
0	33680	24.2	3
0	33681	24.2	3
0	33682	24.2	3
0	33683	24.2	3
0	33684	24.2	3
0	33685	24.2	3
0	33686	24.2	3
0	33933	24.25	3
0	33934	24.25	3
0	33935	24.25	3
0	33936	24.25	3
0	34102	24.3	3
0	34103	24.3	3
0	34104	24.3	3
0	34105	24.3	3
0	34106	24.3	3
0	34107	24.3	3
0	34108	24.3	3
0	34109	24.3	3
0	34150	24.35	3
0	34151	24.35	3
0	34152	24.35	3
0	34153	24.35	3
0	34186	24.4	3
0	34187	24.4	3
0	34188	24.4	3
0	34189	24.4	3
0	34190	24.4	3
0	34191	24.4	3
0	34192	24.4	3
0	34193	24.4	3
0	34234	24.45	3
0	34235	24.45	3
0	34236	24.45	3
0	34237	24.45	3
0	34271	24.5	3
0	34272	24.5	3
0	34273	24.5	3
0	34274	24.5	3
0	34275	24.5	3
0	34276	24.5	3
0	34277	24.5	3
0	34278	24.5	3
0	34319	24.55	3
0	34320	24.55	3
0	34321	24.55	3
0	34322	24.55	3
0	34355	24.6	3
0	34356	24.6	3
0	34357	24.6	3
0	34358	24.6	3
0	34359	24.6	3
0	34360	24.6	3
0	34361	24.6	3
0	34362	24.6	3
0	34403	24.65	3
0	34404	24.65	3
0	34405	24.65	3
0	34406	24.65	3
0	34439	24.7	3
0	34440	24.7	3
0	34441	24.7	3
0	34442	24.7	3
0	34443	24.7	3
0	34444	24.7	3
0	34445	24.7	3
0	34446	24.7	3
0	34487	24.75	3
0	34488	24.75	3
0	34489	24.75	3
0	34490	24.75	3
0	34727	24.8	3
0	34728	24.8	3
0	34729	24.8	3
0	34730	24.8	3
0	34731	24.8	3
0	34732	24.8	3
0	34733	24.8	3
0	34734	24.8	3
0	34847	24.85	3
0	34848	24.85	3
0	34849	24.85	3
0	34850	24.85	3
0	34883	24.9	3
0	34884	24.9	3
0	34885	24.9	3
0	34886	24.9	3
0	34887	24.9	3
0	34888	24.9	3
0	34889	24.9	3
0	34890	24.9	3
0	34931	24.95	3
0	34932	24.95	3
0	34933	24.95	3
0	34934	24.95	3
0	34970	25	3
0	34971	25	3
0	34972	25	3
0	34973	25	3
0	34974	25	3
0	34975	25	3
0	34976	25	3
0	34977	25	3
0	35018	25.05	3
0	35019	25.05	3
0	35020	25.05	3
0	35021	25.05	3
0	35058	25.1	3
0	35059	25.1	3
0	35060	25.1	3
0	35061	25.1	3
0	35062	25.1	3
0	35063	25.1	3
0	35064	25.1	3
0	35065	25.1	3
0	35111	25.15	3
0	35112	25.15	3
0	35113	25.15	3
0	35114	25.15	3
0	35147	25.2	3
0	35148	25.2	3
0	35149	25.2	3
0	35150	25.2	3
0	35151	25.2	3
0	35152	25.2	3
0	35153	25.2	3
0	35154	25.2	3
0	35195	25.25	3
0	35196	25.25	3
0	35197	25.25	3
0	35198	25.25	3
0	35231	25.3	3
0	35232	25.3	3
0	35233	25.3	3
0	35234	25.3	3
0	35235	25.3	3
0	35236	25.3	3
0	35237	25.3	3
0	35238	25.3	3
0	35485	25.35	3
0	35486	25.35	3
0	35487	25.35	3
0	35488	25.35	3
0	35654	25.4	3
0	35655	25.4	3
0	35656	25.4	3
0	35657	25.4	3
0	35658	25.4	3
0	35659	25.4	3
0	35660	25.4	3
0	35661	25.4	3
0	35702	25.45	3
0	35703	25.45	3
0	35704	25.45	3
0	35705	25.45	3
0	35739	25.5	3
0	35740	25.5	3
0	35741	25.5	3
0	35742	25.5	3
0	35743	25.5	3
0	35744	25.5	3
0	35745	25.5	3
0	35746	25.5	3
0	35787	25.55	3
0	35788	25.55	3
0	35789	25.55	3
0	35790	25.55	3
0	35823	25.6	3
0	35824	25.6	3
0	35825	25.6	3
0	35826	25.6	3
0	35827	25.6	3
0	35828	25.6	3
0	35829	25.6	3
0	35830	25.6	3
0	35871	25.65	3
0	35872	25.65	3
0	35873	25.65	3
0	35874	25.65	3
0	35907	25.7	3
0	35908	25.7	3
0	35909	25.7	3
0	35910	25.7	3
0	35911	25.7	3
0	35912	25.7	3
0	35913	25.7	3
0	35914	25.7	3
0	35955	25.75	3
0	35956	25.75	3
0	35957	25.75	3
0	35958	25.75	3
0	35991	25.8	3
0	35992	25.8	3
0	35993	25.8	3
0	35994	25.8	3
0	35995	25.8	3
0	35996	25.8	3
0	35997	25.8	3
0	35998	25.8	3
0	36039	25.85	3
0	36040	25.85	3
0	36041	25.85	3
0	36042	25.85	3
0	36279	25.9	3
0	36280	25.9	3
0	36281	25.9	3
0	36282	25.9	3
0	36283	25.9	3
0	36284	25.9	3
0	36285	25.9	3
0	36286	25.9	3
0	36399	25.95	3
0	36400	25.95	3
0	36401	25.95	3
0	36402	25.95	3
0	36438	26	3
0	36439	26	3
0	36440	26	3
0	36441	26	3
0	36442	26	3
0	36443	26	3
0	36444	26	3
0	36445	26	3
0	36486	26.05	3
0	36487	26.05	3
0	36488	26.05	3
0	36489	26.05	3
0	36526	26.1	3
0	36527	26.1	3
0	36528	26.1	3
0	36529	26.1	3
0	36530	26.1	3
0	36531	26.1	3
0	36532	26.1	3
0	36533	26.1	3
0	36579	26.15	3
0	36580	26.15	3
0	36581	26.15	3
0	36582	26.15	3
0	36615	26.2	3
0	36616	26.2	3
0	36617	26.2	3
0	36618	26.2	3
0	36619	26.2	3
0	36620	26.2	3
0	36621	26.2	3
0	36622	26.2	3
0	36663	26.25	3
0	36664	26.25	3
0	36665	26.25	3
0	36666	26.25	3
0	36699	26.3	3
0	36700	26.3	3
0	36701	26.3	3
0	36702	26.3	3
0	36703	26.3	3
0	36704	26.3	3
0	36705	26.3	3
0	36706	26.3	3
0	36747	26.35	3
0	36748	26.35	3
0	36749	26.35	3
0	36750	26.35	3
0	36783	26.4	3
0	36784	26.4	3
0	36785	26.4	3
0	36786	26.4	3
0	36787	26.4	3
0	36788	26.4	3
0	36789	26.4	3
0	36790	26.4	3
0	37037	26.45	3
0	37038	26.45	3
0	37039	26.45	3
0	37040	26.45	3
0	37207	26.5	3
0	37208	26.5	3
0	37209	26.5	3
0	37210	26.5	3
0	37211	26.5	3
0	37212	26.5	3
0	37213	26.5	3
0	37214	26.5	3
0	37255	26.55	3
0	37256	26.55	3
0	37257	26.55	3
0	37258	26.55	3
0	37291	26.6	3
0	37292	26.6	3
0	37293	26.6	3
0	37294	26.6	3
0	37295	26.6	3
0	37296	26.6	3
0	37297	26.6	3
0	37298	26.6	3
0	37339	26.65	3
0	37340	26.65	3
0	37341	26.65	3
0	37342	26.65	3
0	37375	26.7	3
0	37376	26.7	3
0	37377	26.7	3
0	37378	26.7	3
0	37379	26.7	3
0	37380	26.7	3
0	37381	26.7	3
0	37382	26.7	3
0	37423	26.75	3
0	37424	26.75	3
0	37425	26.75	3
0	37426	26.75	3
0	37459	26.8	3
0	37460	26.8	3
0	37461	26.8	3
0	37462	26.8	3
0	37463	26.8	3
0	37464	26.8	3
0	37465	26.8	3
0	37466	26.8	3
0	37507	26.85	3
0	37508	26.85	3
0	37509	26.85	3
0	37510	26.85	3
0	37543	26.9	3
0	37544	26.9	3
0	37545	26.9	3
0	37546	26.9	3
0	37547	26.9	3
0	37548	26.9	3
0	37549	26.9	3
0	37550	26.9	3
0	37591	26.95	3
0	37592	26.95	3
0	37593	26.95	3
0	37594	26.95	3
0	37834	27	3
0	37835	27	3
0	37836	27	3
0	37837	27	3
0	37838	27	3
0	37839	27	3
0	37840	27	3
0	37841	27	3
0	37954	27.05	3
0	37955	27.05	3
0	37956	27.05	3
0	37957	27.05	3
0	37994	27.1	3
0	37995	27.1	3
0	37996	27.1	3
0	37997	27.1	3
0	37998	27.1	3
0	37999	27.1	3
0	38000	27.1	3
0	38001	27.1	3
0	38047	27.15	3
0	38048	27.15	3
0	38049	27.15	3
0	38050	27.15	3
0	38083	27.2	3
0	38084	27.2	3
0	38085	27.2	3
0	38086	27.2	3
0	38087	27.2	3
0	38088	27.2	3
0	38089	27.2	3
0	38090	27.2	3
0	38131	27.25	3
0	38132	27.25	3
0	38133	27.25	3
0	38134	27.25	3
0	38167	27.3	3
0	38168	27.3	3
0	38169	27.3	3
0	38170	27.3	3
0	38171	27.3	3
0	38172	27.3	3
0	38173	27.3	3
0	38174	27.3	3
0	38215	27.35	3
0	38216	27.35	3
0	38217	27.35	3
0	38218	27.35	3
0	38251	27.4	3
0	38252	27.4	3
0	38253	27.4	3
0	38254	27.4	3
0	38255	27.4	3
0	38256	27.4	3
0	38257	27.4	3
0	38258	27.4	3
0	38299	27.45	3
0	38300	27.45	3
0	38301	27.45	3
0	38302	27.45	3
0	38336	27.5	3
0	38337	27.5	3
0	38338	27.5	3
0	38339	27.5	3
0	38340	27.5	3
0	38341	27.5	3
0	38342	27.5	3
0	38343	27.5	3
0	38590	27.55	3
0	38591	27.55	3
0	38592	27.55	3
0	38593	27.55	3
0	38759	27.6	3
0	38760	27.6	3
0	38761	27.6	3
0	38762	27.6	3
0	38763	27.6	3
0	38764	27.6	3
0	38765	27.6	3
0	38766	27.6	3
0	38807	27.65	3
0	38808	27.65	3
0	38809	27.65	3
0	38810	27.65	3
0	38843	27.7	3
0	38844	27.7	3
0	38845	27.7	3
0	38846	27.7	3
0	38847	27.7	3
0	38848	27.7	3
0	38849	27.7	3
0	38850	27.7	3
0	38891	27.75	3
0	38892	27.75	3
0	38893	27.75	3
0	38894	27.75	3
0	38927	27.8	3
0	38928	27.8	3
0	38929	27.8	3
0	38930	27.8	3
0	38931	27.8	3
0	38932	27.8	3
0	38933	27.8	3
0	38934	27.8	3
0	38975	27.85	3
0	38976	27.85	3
0	38977	27.85	3
0	38978	27.85	3
0	39011	27.9	3
0	39012	27.9	3
0	39013	27.9	3
0	39014	27.9	3
0	39015	27.9	3
0	39016	27.9	3
0	39017	27.9	3
0	39018	27.9	3
0	39059	27.95	3
0	39060	27.95	3
0	39061	27.95	3
0	39062	27.95	3
0	39098	28	3
0	39099	28	3
0	39100	28	3
0	39101	28	3
0	39102	28	3
0	39103	28	3
0	39104	28	3
0	39105	28	3
0	39146	28.05	3
0	39147	28.05	3
0	39148	28.05	3
0	39149	28.05	3
0	39390	28.1	3
0	39391	28.1	3
0	39392	28.1	3
0	39393	28.1	3
0	39394	28.1	3
0	39395	28.1	3
0	39396	28.1	3
0	39397	28.1	3
0	39557	28.15	3
0	39558	28.15	3
0	39559	28.15	3
0	39560	28.15	3
0	39593	28.2	3
0	39594	28.2	3
0	39595	28.2	3
0	39596	28.2	3
0	39597	28.2	3
0	39598	28.2	3
0	39599	28.2	3
0	39600	28.2	3
0	39641	28.25	3
0	39642	28.25	3
0	39643	28.25	3
0	39644	28.25	3
0	39677	28.3	3
0	39678	28.3	3
0	39679	28.3	3
0	39680	28.3	3
0	39681	28.3	3
0	39682	28.3	3
0	39683	28.3	3
0	39684	28.3	3
0	39725	28.35	3
0	39726	28.35	3
0	39727	28.35	3
0	39728	28.35	3
0	39761	28.4	3
0	39762	28.4	3
0	39763	28.4	3
0	39764	28.4	3
0	39765	28.4	3
0	39766	28.4	3
0	39767	28.4	3
0	39768	28.4	3
0	39809	28.45	3
0	39810	28.45	3
0	39811	28.45	3
0	39812	28.45	3
0	39846	28.5	3
0	39847	28.5	3
0	39848	28.5	3
0	39849	28.5	3
0	39850	28.5	3
0	39851	28.5	3
0	39852	28.5	3
0	39853	28.5	3
0	39894	28.55	3
0	39895	28.55	3
0	39896	28.55	3
0	39897	28.55	3
0	39930	28.6	3
0	39931	28.6	3
0	39932	28.6	3
0	39933	28.6	3
0	39934	28.6	3
0	39935	28.6	3
0	39936	28.6	3
0	39937	28.6	3
0	40184	28.65	3
0	40185	28.65	3
0	40186	28.65	3
0	40187	28.65	3
0	40311	28.7	3
0	40312	28.7	3
0	40313	28.7	3
0	40314	28.7	3
0	40315	28.7	3
0	40316	28.7	3
0	40317	28.7	3
0	40318	28.7	3
0	40359	28.75	3
0	40360	28.75	3
0	40361	28.75	3
0	40362	28.75	3
0	40395	28.8	3
0	40396	28.8	3
0	40397	28.8	3
0	40398	28.8	3
0	40399	28.8	3
0	40400	28.8	3
0	40401	28.8	3
0	40402	28.8	3
0	40443	28.85	3
0	40444	28.85	3
0	40445	28.85	3
0	40446	28.85	3
0	40479	28.9	3
0	40480	28.9	3
0	40481	28.9	3
0	40482	28.9	3
0	40483	28.9	3
0	40484	28.9	3
0	40485	28.9	3
0	40486	28.9	3
0	40527	28.95	3
0	40528	28.95	3
0	40529	28.95	3
0	40530	28.95	3
0	40566	29	3
0	40567	29	3
0	40568	29	3
0	40569	29	3
0	40570	29	3
0	40571	29	3
0	40572	29	3
0	40573	29	3
0	40614	29.05	3
0	40615	29.05	3
0	40616	29.05	3
0	40617	29.05	3
0	40654	29.1	3
0	40655	29.1	3
0	40656	29.1	3
0	40657	29.1	3
0	40658	29.1	3
0	40659	29.1	3
0	40660	29.1	3
0	40661	29.1	3
0	40707	29.15	3
0	40708	29.15	3
0	40709	29.15	3
0	40710	29.15	3
0	40949	29.2	3
0	40950	29.2	3
0	40951	29.2	3
0	40952	29.2	3
0	40953	29.2	3
0	40954	29.2	3
0	40955	29.2	3
0	40956	29.2	3
0	41130	29.25	3
0	41131	29.25	3
0	41132	29.25	3
0	41133	29.25	3
0	41166	29.3	3
0	41167	29.3	3
0	41168	29.3	3
0	41169	29.3	3
0	41170	29.3	3
0	41171	29.3	3
0	41172	29.3	3
0	41173	29.3	3
0	41214	29.35	3
0	41215	29.35	3
0	41216	29.35	3
0	41217	29.35	3
0	41250	29.4	3
0	41251	29.4	3
0	41252	29.4	3
0	41253	29.4	3
0	41254	29.4	3
0	41255	29.4	3
0	41256	29.4	3
0	41257	29.4	3
0	41298	29.45	3
0	41299	29.45	3
0	41300	29.45	3
0	41301	29.45	3
0	41335	29.5	3
0	41336	29.5	3
0	41337	29.5	3
0	41338	29.5	3
0	41339	29.5	3
0	41340	29.5	3
0	41341	29.5	3
0	41342	29.5	3
0	41383	29.55	3
0	41384	29.55	3
0	41385	29.55	3
0	41386	29.55	3
0	41419	29.6	3
0	41420	29.6	3
0	41421	29.6	3
0	41422	29.6	3
0	41423	29.6	3
0	41424	29.6	3
0	41425	29.6	3
0	41426	29.6	3
0	41467	29.65	3
0	41468	29.65	3
0	41469	29.65	3
0	41470	29.65	3
0	41503	29.7	3
0	41504	29.7	3
0	41505	29.7	3
0	41506	29.7	3
0	41507	29.7	3
0	41508	29.7	3
0	41509	29.7	3
0	41510	29.7	3
0	41755	29.75	3
0	41756	29.75	3
0	41757	29.75	3
0	41758	29.75	3
0	41863	29.8	3
0	41864	29.8	3
0	41865	29.8	3
0	41866	29.8	3
0	41867	29.8	3
0	41868	29.8	3
0	41869	29.8	3
0	41870	29.8	3
0	41911	29.85	3
0	41912	29.85	3
0	41913	29.85	3
0	41914	29.85	3
0	41947	29.9	3
0	41948	29.9	3
0	41949	29.9	3
0	41950	29.9	3
0	41951	29.9	3
0	41952	29.9	3
0	41953	29.9	3
0	41954	29.9	3
0	41995	29.95	3
0	41996	29.95	3
0	41997	29.95	3
0	41998	29.95	3
0	42034	30	3
0	42035	30	3
0	42036	30	3
0	42037	30	3
0	42038	30	3
0	42039	30	3
0	42040	30	3
0	42041	30	3
0	42082	30.05	3
0	42083	30.05	3
0	42084	30.05	3
0	42085	30.05	3
0	42122	30.1	3
0	42123	30.1	3
0	42124	30.1	3
0	42125	30.1	3
0	42126	30.1	3
0	42127	30.1	3
0	42128	30.1	3
0	42129	30.1	3
0	42175	30.15	3
0	42176	30.15	3
0	42177	30.15	3
0	42178	30.15	3
0	42211	30.2	3
0	42212	30.2	3
0	42213	30.2	3
0	42214	30.2	3
0	42215	30.2	3
0	42216	30.2	3
0	42217	30.2	3
0	42218	30.2	3
0	42259	30.25	3
0	42260	30.25	3
0	42261	30.25	3
0	42262	30.25	3
0	42501	30.3	3
0	42502	30.3	3
0	42503	30.3	3
0	42504	30.3	3
0	42505	30.3	3
0	42506	30.3	3
0	42507	30.3	3
0	42508	30.3	3
0	42682	30.35	3
0	42683	30.35	3
0	42684	30.35	3
0	42685	30.35	3
0	42718	30.4	3
0	42719	30.4	3
0	42720	30.4	3
0	42721	30.4	3
0	42722	30.4	3
0	42723	30.4	3
0	42724	30.4	3
0	42725	30.4	3
0	42766	30.45	3
0	42767	30.45	3
0	42768	30.45	3
0	42769	30.45	3
0	42803	30.5	3
0	42804	30.5	3
0	42805	30.5	3
0	42806	30.5	3
0	42807	30.5	3
0	42808	30.5	3
0	42809	30.5	3
0	42810	30.5	3
0	42851	30.55	3
0	42852	30.55	3
0	42853	30.55	3
0	42854	30.55	3
0	42887	30.6	3
0	42888	30.6	3
0	42889	30.6	3
0	42890	30.6	3
0	42891	30.6	3
0	42892	30.6	3
0	42893	30.6	3
0	42894	30.6	3
0	42935	30.65	3
0	42936	30.65	3
0	42937	30.65	3
0	42938	30.65	3
0	42971	30.7	3
0	42972	30.7	3
0	42973	30.7	3
0	42974	30.7	3
0	42975	30.7	3
0	42976	30.7	3
0	42977	30.7	3
0	42978	30.7	3
0	43019	30.75	3
0	43020	30.75	3
0	43021	30.75	3
0	43022	30.75	3
0	43055	30.8	3
0	43056	30.8	3
0	43057	30.8	3
0	43058	30.8	3
0	43059	30.8	3
0	43060	30.8	3
0	43061	30.8	3
0	43062	30.8	3
0	43307	30.85	3
0	43308	30.85	3
0	43309	30.85	3
0	43310	30.85	3
0	43415	30.9	3
0	43416	30.9	3
0	43417	30.9	3
0	43418	30.9	3
0	43419	30.9	3
0	43420	30.9	3
0	43421	30.9	3
0	43422	30.9	3
0	43463	30.95	3
0	43464	30.95	3
0	43465	30.95	3
0	43466	30.95	3
0	43502	31	3
0	43503	31	3
0	43504	31	3
0	43505	31	3
0	43506	31	3
0	43507	31	3
0	43508	31	3
0	43509	31	3
0	43550	31.05	3
0	43551	31.05	3
0	43552	31.05	3
0	43553	31.05	3
0	43590	31.1	3
0	43591	31.1	3
0	43592	31.1	3
0	43593	31.1	3
0	43594	31.1	3
0	43595	31.1	3
0	43596	31.1	3
0	43597	31.1	3
0	43643	31.15	3
0	43644	31.15	3
0	43645	31.15	3
0	43646	31.15	3
0	43679	31.2	3
0	43680	31.2	3
0	43681	31.2	3
0	43682	31.2	3
0	43683	31.2	3
0	43684	31.2	3
0	43685	31.2	3
0	43686	31.2	3
0	43727	31.25	3
0	43728	31.25	3
0	43729	31.25	3
0	43730	31.25	3
0	43763	31.3	3
0	43764	31.3	3
0	43765	31.3	3
0	43766	31.3	3
0	43767	31.3	3
0	43768	31.3	3
0	43769	31.3	3
0	43770	31.3	3
0	43811	31.35	3
0	43812	31.35	3
0	43813	31.35	3
0	43814	31.35	3
0	44053	31.4	3
0	44054	31.4	3
0	44055	31.4	3
0	44056	31.4	3
0	44057	31.4	3
0	44058	31.4	3
0	44059	31.4	3
0	44060	31.4	3
0	44234	31.45	3
0	44235	31.45	3
0	44236	31.45	3
0	44237	31.45	3
0	44271	31.5	3
0	44272	31.5	3
0	44273	31.5	3
0	44274	31.5	3
0	44275	31.5	3
0	44276	31.5	3
0	44277	31.5	3
0	44278	31.5	3
0	44319	31.55	3
0	44320	31.55	3
0	44321	31.55	3
0	44322	31.55	3
0	44355	31.6	3
0	44356	31.6	3
0	44357	31.6	3
0	44358	31.6	3
0	44359	31.6	3
0	44360	31.6	3
0	44361	31.6	3
0	44362	31.6	3
0	44403	31.65	3
0	44404	31.65	3
0	44405	31.65	3
0	44406	31.65	3
0	44439	31.7	3
0	44440	31.7	3
0	44441	31.7	3
0	44442	31.7	3
0	44443	31.7	3
0	44444	31.7	3
0	44445	31.7	3
0	44446	31.7	3
0	44487	31.75	3
0	44488	31.75	3
0	44489	31.75	3
0	44490	31.75	3
0	44523	31.8	3
0	44524	31.8	3
0	44525	31.8	3
0	44526	31.8	3
0	44527	31.8	3
0	44528	31.8	3
0	44529	31.8	3
0	44530	31.8	3
0	44571	31.85	3
0	44572	31.85	3
0	44573	31.85	3
0	44574	31.85	3
0	44607	31.9	3
0	44608	31.9	3
0	44609	31.9	3
0	44610	31.9	3
0	44611	31.9	3
0	44612	31.9	3
0	44613	31.9	3
0	44614	31.9	3
0	44859	31.95	3
0	44860	31.95	3
0	44861	31.95	3
0	44862	31.95	3
0	44970	32	3
0	44971	32	3
0	44972	32	3
0	44973	32	3
0	44974	32	3
0	44975	32	3
0	44976	32	3
0	44977	32	3
0	45018	32.05	3
0	45019	32.05	3
0	45020	32.05	3
0	45021	32.05	3
0	45058	32.1	3
0	45059	32.1	3
0	45060	32.1	3
0	45061	32.1	3
0	45062	32.1	3
0	45063	32.1	3
0	45064	32.1	3
0	45065	32.1	3
0	45111	32.15	3
0	45112	32.15	3
0	45113	32.15	3
0	45114	32.15	3
0	45147	32.2	3
0	45148	32.2	3
0	45149	32.2	3
0	45150	32.2	3
0	45151	32.2	3
0	45152	32.2	3
0	45153	32.2	3
0	45154	32.2	3
0	45195	32.25	3
0	45196	32.25	3
0	45197	32.25	3
0	45198	32.25	3
0	45231	32.3	3
0	45232	32.3	3
0	45233	32.3	3
0	45234	32.3	3
0	45235	32.3	3
0	45236	32.3	3
0	45237	32.3	3
0	45238	32.3	3
0	45279	32.35	3
0	45280	32.35	3
0	45281	32.35	3
0	45282	32.35	3
0	45315	32.4	3
0	45316	32.4	3
0	45317	32.4	3
0	45318	32.4	3
0	45319	32.4	3
0	45320	32.4	3
0	45321	32.4	3
0	45322	32.4	3
0	45363	32.45	3
0	45364	32.45	3
0	45365	32.45	3
0	45366	32.45	3
0	45606	32.5	3
0	45607	32.5	3
0	45608	32.5	3
0	45609	32.5	3
0	45610	32.5	3
0	45611	32.5	3
0	45612	32.5	3
0	45613	32.5	3
0	45787	32.55	3
0	45788	32.55	3
0	45789	32.55	3
0	45790	32.55	3
0	45823	32.6	3
0	45824	32.6	3
0	45825	32.6	3
0	45826	32.6	3
0	45827	32.6	3
0	45828	32.6	3
0	45829	32.6	3
0	45830	32.6	3
0	45871	32.65	3
0	45872	32.65	3
0	45873	32.65	3
0	45874	32.65	3
0	45907	32.7	3
0	45908	32.7	3
0	45909	32.7	3
0	45910	32.7	3
0	45911	32.7	3
0	45912	32.7	3
0	45913	32.7	3
0	45914	32.7	3
0	45955	32.75	3
0	45956	32.75	3
0	45957	32.75	3
0	45958	32.75	3
0	45991	32.8	3
0	45992	32.8	3
0	45993	32.8	3
0	45994	32.8	3
0	45995	32.8	3
0	45996	32.8	3
0	45997	32.8	3
0	45998	32.8	3
0	46039	32.85	3
0	46040	32.85	3
0	46041	32.85	3
0	46042	32.85	3
0	46075	32.9	3
0	46076	32.9	3
0	46077	32.9	3
0	46078	32.9	3
0	46079	32.9	3
0	46080	32.9	3
0	46081	32.9	3
0	46082	32.9	3
0	46123	32.95	3
0	46124	32.95	3
0	46125	32.95	3
0	46126	32.95	3
0	46162	33	3
0	46163	33	3
0	46164	33	3
0	46165	33	3
0	46166	33	3
0	46167	33	3
0	46168	33	3
0	46169	33	3
0	46414	33.05	3
0	46415	33.05	3
0	46416	33.05	3
0	46417	33.05	3
0	46526	33.1	3
0	46527	33.1	3
0	46528	33.1	3
0	46529	33.1	3
0	46530	33.1	3
0	46531	33.1	3
0	46532	33.1	3
0	46533	33.1	3
0	46579	33.15	3
0	46580	33.15	3
0	46581	33.15	3
0	46582	33.15	3
0	46615	33.2	3
0	46616	33.2	3
0	46617	33.2	3
0	46618	33.2	3
0	46619	33.2	3
0	46620	33.2	3
0	46621	33.2	3
0	46622	33.2	3
0	46663	33.25	3
0	46664	33.25	3
0	46665	33.25	3
0	46666	33.25	3
0	46699	33.3	3
0	46700	33.3	3
0	46701	33.3	3
0	46702	33.3	3
0	46703	33.3	3
0	46704	33.3	3
0	46705	33.3	3
0	46706	33.3	3
0	46747	33.35	3
0	46748	33.35	3
0	46749	33.35	3
0	46750	33.35	3
0	46783	33.4	3
0	46784	33.4	3
0	46785	33.4	3
0	46786	33.4	3
0	46787	33.4	3
0	46788	33.4	3
0	46789	33.4	3
0	46790	33.4	3
0	46831	33.45	3
0	46832	33.45	3
0	46833	33.45	3
0	46834	33.45	3
0	46868	33.5	3
0	46869	33.5	3
0	46870	33.5	3
0	46871	33.5	3
0	46872	33.5	3
0	46873	33.5	3
0	46874	33.5	3
0	46875	33.5	3
0	46916	33.55	3
0	46917	33.55	3
0	46918	33.55	3
0	46919	33.55	3
0	47158	33.6	3
0	47159	33.6	3
0	47160	33.6	3
0	47161	33.6	3
0	47162	33.6	3
0	47163	33.6	3
0	47164	33.6	3
0	47165	33.6	3
0	47339	33.65	3
0	47340	33.65	3
0	47341	33.65	3
0	47342	33.65	3
0	47375	33.7	3
0	47376	33.7	3
0	47377	33.7	3
0	47378	33.7	3
0	47379	33.7	3
0	47380	33.7	3
0	47381	33.7	3
0	47382	33.7	3
0	47423	33.75	3
0	47424	33.75	3
0	47425	33.75	3
0	47426	33.75	3
0	47459	33.8	3
0	47460	33.8	3
0	47461	33.8	3
0	47462	33.8	3
0	47463	33.8	3
0	47464	33.8	3
0	47465	33.8	3
0	47466	33.8	3
0	47507	33.85	3
0	47508	33.85	3
0	47509	33.85	3
0	47510	33.85	3
0	47543	33.9	3
0	47544	33.9	3
0	47545	33.9	3
0	47546	33.9	3
0	47547	33.9	3
0	47548	33.9	3
0	47549	33.9	3
0	47550	33.9	3
0	47591	33.95	3
0	47592	33.95	3
0	47593	33.95	3
0	47594	33.95	3
0	47630	34	3
0	47631	34	3
0	47632	34	3
0	47633	34	3
0	47634	34	3
0	47635	34	3
0	47636	34	3
0	47637	34	3
0	47678	34.05	3
0	47679	34.05	3
0	47680	34.05	3
0	47681	34.05	3
0	47718	34.1	3
0	47719	34.1	3
0	47720	34.1	3
0	47721	34.1	3
0	47722	34.1	3
0	47723	34.1	3
0	47724	34.1	3
0	47725	34.1	3
0	47977	34.15	3
0	47978	34.15	3
0	47979	34.15	3
0	47980	34.15	3
0	48146	34.2	3
0	48147	34.2	3
0	48148	34.2	3
0	48149	34.2	3
0	48150	34.2	3
0	48151	34.2	3
0	48152	34.2	3
0	48153	34.2	3
0	48194	34.25	3
0	48195	34.25	3
0	48196	34.25	3
0	48197	34.25	3
0	48230	34.3	3
0	48231	34.3	3
0	48232	34.3	3
0	48233	34.3	3
0	48234	34.3	3
0	48235	34.3	3
0	48236	34.3	3
0	48237	34.3	3
0	48278	34.35	3
0	48279	34.35	3
0	48280	34.35	3
0	48281	34.35	3
0	48314	34.4	3
0	48315	34.4	3
0	48316	34.4	3
0	48317	34.4	3
0	48318	34.4	3
0	48319	34.4	3
0	48320	34.4	3
0	48321	34.4	3
0	48362	34.45	3
0	48363	34.45	3
0	48364	34.45	3
0	48365	34.45	3
0	48399	34.5	3
0	48400	34.5	3
0	48401	34.5	3
0	48402	34.5	3
0	48403	34.5	3
0	48404	34.5	3
0	48405	34.5	3
0	48406	34.5	3
0	48447	34.55	3
0	48448	34.55	3
0	48449	34.55	3
0	48450	34.55	3
0	48483	34.6	3
0	48484	34.6	3
0	48485	34.6	3
0	48486	34.6	3
0	48487	34.6	3
0	48488	34.6	3
0	48489	34.6	3
0	48490	34.6	3
0	48531	34.65	3
0	48532	34.65	3
0	48533	34.65	3
0	48534	34.65	3
0	48771	34.7	3
0	48772	34.7	3
0	48773	34.7	3
0	48774	34.7	3
0	48775	34.7	3
0	48776	34.7	3
0	48777	34.7	3
0	48778	34.7	3
0	48891	34.75	3
0	48892	34.75	3
0	48893	34.75	3
0	48894	34.75	3
0	48927	34.8	3
0	48928	34.8	3
0	48929	34.8	3
0	48930	34.8	3
0	48931	34.8	3
0	48932	34.8	3
0	48933	34.8	3
0	48934	34.8	3
0	48975	34.85	3
0	48976	34.85	3
0	48977	34.85	3
0	48978	34.85	3
0	49011	34.9	3
0	49012	34.9	3
0	49013	34.9	3
0	49014	34.9	3
0	49015	34.9	3
0	49016	34.9	3
0	49017	34.9	3
0	49018	34.9	3
0	49059	34.95	3
0	49060	34.95	3
0	49061	34.95	3
0	49062	34.95	3
0	49098	35	3
0	49099	35	3
0	49100	35	3
0	49101	35	3
0	49102	35	3
0	49103	35	3
0	49104	35	3
0	49105	35	3
0	49146	35.05	3
0	49147	35.05	3
0	49148	35.05	3
0	49149	35.05	3
0	49186	35.1	3
0	49187	35.1	3
0	49188	35.1	3
0	49189	35.1	3
0	49190	35.1	3
0	49191	35.1	3
0	49192	35.1	3
0	49193	35.1	3
0	49239	35.15	3
0	49240	35.15	3
0	49241	35.15	3
0	49242	35.15	3
0	49275	35.2	3
0	49276	35.2	3
0	49277	35.2	3
0	49278	35.2	3
0	49279	35.2	3
0	49280	35.2	3
0	49281	35.2	3
0	49282	35.2	3
0	49529	35.25	3
0	49530	35.25	3
0	49531	35.25	3
0	49532	35.25	3
0	49698	35.3	3
0	49699	35.3	3
0	49700	35.3	3
0	49701	35.3	3
0	49702	35.3	3
0	49703	35.3	3
0	49704	35.3	3
0	49705	35.3	3
0	49746	35.35	3
0	49747	35.35	3
0	49748	35.35	3
0	49749	35.35	3
0	49782	35.4	3
0	49783	35.4	3
0	49784	35.4	3
0	49785	35.4	3
0	49786	35.4	3
0	49787	35.4	3
0	49788	35.4	3
0	49789	35.4	3
0	49830	35.45	3
0	49831	35.45	3
0	49832	35.45	3
0	49833	35.45	3
0	49867	35.5	3
0	49868	35.5	3
0	49869	35.5	3
0	49870	35.5	3
0	49871	35.5	3
0	49872	35.5	3
0	49873	35.5	3
0	49874	35.5	3
0	49915	35.55	3
0	49916	35.55	3
0	49917	35.55	3
0	49918	35.55	3
0	49951	35.6	3
0	49952	35.6	3
0	49953	35.6	3
0	49954	35.6	3
0	49955	35.6	3
0	49956	35.6	3
0	49957	35.6	3
0	49958	35.6	3
0	49999	35.65	3
0	50000	35.65	3
0	50001	35.65	3
0	50002	35.65	3
0	50035	35.7	3
0	50036	35.7	3
0	50037	35.7	3
0	50038	35.7	3
0	50039	35.7	3
0	50040	35.7	3
0	50041	35.7	3
0	50042	35.7	3
0	50083	35.75	3
0	50084	35.75	3
0	50085	35.75	3
0	50086	35.75	3
0	50323	35.8	3
0	50324	35.8	3
0	50325	35.8	3
0	50326	35.8	3
0	50327	35.8	3
0	50328	35.8	3
0	50329	35.8	3
0	50330	35.8	3
0	50443	35.85	3
0	50444	35.85	3
0	50445	35.85	3
0	50446	35.85	3
0	50479	35.9	3
0	50480	35.9	3
0	50481	35.9	3
0	50482	35.9	3
0	50483	35.9	3
0	50484	35.9	3
0	50485	35.9	3
0	50486	35.9	3
0	50527	35.95	3
0	50528	35.95	3
0	50529	35.95	3
0	50530	35.95	3
0	50566	36	3
0	50567	36	3
0	50568	36	3
0	50569	36	3
0	50570	36	3
0	50571	36	3
0	50572	36	3
0	50573	36	3
0	50614	36.05	3
0	50615	36.05	3
0	50616	36.05	3
0	50617	36.05	3
0	50654	36.1	3
0	50655	36.1	3
0	50656	36.1	3
0	50657	36.1	3
0	50658	36.1	3
0	50659	36.1	3
0	50660	36.1	3
0	50661	36.1	3
0	50707	36.15	3
0	50708	36.15	3
0	50709	36.15	3
0	50710	36.15	3
0	50743	36.2	3
0	50744	36.2	3
0	50745	36.2	3
0	50746	36.2	3
0	50747	36.2	3
0	50748	36.2	3
0	50749	36.2	3
0	50750	36.2	3
0	50791	36.25	3
0	50792	36.25	3
0	50793	36.25	3
0	50794	36.25	3
0	50827	36.3	3
0	50828	36.3	3
0	50829	36.3	3
0	50830	36.3	3
0	50831	36.3	3
0	50832	36.3	3
0	50833	36.3	3
0	50834	36.3	3
0	51081	36.35	3
0	51082	36.35	3
0	51083	36.35	3
0	51084	36.35	3
0	51250	36.4	3
0	51251	36.4	3
0	51252	36.4	3
0	51253	36.4	3
0	51254	36.4	3
0	51255	36.4	3
0	51256	36.4	3
0	51257	36.4	3
0	51298	36.45	3
0	51299	36.45	3
0	51300	36.45	3
0	51301	36.45	3
0	51335	36.5	3
0	51336	36.5	3
0	51337	36.5	3
0	51338	36.5	3
0	51339	36.5	3
0	51340	36.5	3
0	51341	36.5	3
0	51342	36.5	3
0	51383	36.55	3
0	51384	36.55	3
0	51385	36.55	3
0	51386	36.55	3
0	51419	36.6	3
0	51420	36.6	3
0	51421	36.6	3
0	51422	36.6	3
0	51423	36.6	3
0	51424	36.6	3
0	51425	36.6	3
0	51426	36.6	3
0	51467	36.65	3
0	51468	36.65	3
0	51469	36.65	3
0	51470	36.65	3
0	51503	36.7	3
0	51504	36.7	3
0	51505	36.7	3
0	51506	36.7	3
0	51507	36.7	3
0	51508	36.7	3
0	51509	36.7	3
0	51510	36.7	3
0	51551	36.75	3
0	51552	36.75	3
0	51553	36.75	3
0	51554	36.75	3
0	51587	36.8	3
0	51588	36.8	3
0	51589	36.8	3
0	51590	36.8	3
0	51591	36.8	3
0	51592	36.8	3
0	51593	36.8	3
0	51594	36.8	3
0	51635	36.85	3
0	51636	36.85	3
0	51637	36.85	3
0	51638	36.85	3
0	51875	36.9	3
0	51876	36.9	3
0	51877	36.9	3
0	51878	36.9	3
0	51879	36.9	3
0	51880	36.9	3
0	51881	36.9	3
0	51882	36.9	3
0	51995	36.95	3
0	51996	36.95	3
0	51997	36.95	3
0	51998	36.95	3
0	52034	37	3
0	52035	37	3
0	52036	37	3
0	52037	37	3
0	52038	37	3
0	52039	37	3
0	52040	37	3
0	52041	37	3
0	52082	37.05	3
0	52083	37.05	3
0	52084	37.05	3
0	52085	37.05	3
0	52122	37.1	3
0	52123	37.1	3
0	52124	37.1	3
0	52125	37.1	3
0	52126	37.1	3
0	52127	37.1	3
0	52128	37.1	3
0	52129	37.1	3
0	52175	37.15	3
0	52176	37.15	3
0	52177	37.15	3
0	52178	37.15	3
0	52211	37.2	3
0	52212	37.2	3
0	52213	37.2	3
0	52214	37.2	3
0	52215	37.2	3
0	52216	37.2	3
0	52217	37.2	3
0	52218	37.2	3
0	52259	37.25	3
0	52260	37.25	3
0	52261	37.25	3
0	52262	37.25	3
0	52295	37.3	3
0	52296	37.3	3
0	52297	37.3	3
0	52298	37.3	3
0	52299	37.3	3
0	52300	37.3	3
0	52301	37.3	3
0	52302	37.3	3
0	52343	37.35	3
0	52344	37.35	3
0	52345	37.35	3
0	52346	37.35	3
0	52379	37.4	3
0	52380	37.4	3
0	52381	37.4	3
0	52382	37.4	3
0	52383	37.4	3
0	52384	37.4	3
0	52385	37.4	3
0	52386	37.4	3
0	52633	37.45	3
0	52634	37.45	3
0	52635	37.45	3
0	52636	37.45	3
0	52803	37.5	3
0	52804	37.5	3
0	52805	37.5	3
0	52806	37.5	3
0	52807	37.5	3
0	52808	37.5	3
0	52809	37.5	3
0	52810	37.5	3
0	52851	37.55	3
0	52852	37.55	3
0	52853	37.55	3
0	52854	37.55	3
0	52887	37.6	3
0	52888	37.6	3
0	52889	37.6	3
0	52890	37.6	3
0	52891	37.6	3
0	52892	37.6	3
0	52893	37.6	3
0	52894	37.6	3
0	52935	37.65	3
0	52936	37.65	3
0	52937	37.65	3
0	52938	37.65	3
0	52971	37.7	3
0	52972	37.7	3
0	52973	37.7	3
0	52974	37.7	3
0	52975	37.7	3
0	52976	37.7	3
0	52977	37.7	3
0	52978	37.7	3
0	53019	37.75	3
0	53020	37.75	3
0	53021	37.75	3
0	53022	37.75	3
0	53055	37.8	3
0	53056	37.8	3
0	53057	37.8	3
0	53058	37.8	3
0	53059	37.8	3
0	53060	37.8	3
0	53061	37.8	3
0	53062	37.8	3
0	53103	37.85	3
0	53104	37.85	3
0	53105	37.85	3
0	53106	37.85	3
0	53139	37.9	3
0	53140	37.9	3
0	53141	37.9	3
0	53142	37.9	3
0	53143	37.9	3
0	53144	37.9	3
0	53145	37.9	3
0	53146	37.9	3
0	53187	37.95	3
0	53188	37.95	3
0	53189	37.95	3
0	53190	37.95	3
0	53430	38	3
0	53431	38	3
0	53432	38	3
0	53433	38	3
0	53434	38	3
0	53435	38	3
0	53436	38	3
0	53437	38	3
0	53550	38.05	3
0	53551	38.05	3
0	53552	38.05	3
0	53553	38.05	3
0	53590	38.1	3
0	53591	38.1	3
0	53592	38.1	3
0	53593	38.1	3
0	53594	38.1	3
0	53595	38.1	3
0	53596	38.1	3
0	53597	38.1	3
0	53643	38.15	3
0	53644	38.15	3
0	53645	38.15	3
0	53646	38.15	3
0	53679	38.2	3
0	53680	38.2	3
0	53681	38.2	3
0	53682	38.2	3
0	53683	38.2	3
0	53684	38.2	3
0	53685	38.2	3
0	53686	38.2	3
0	53727	38.25	3
0	53728	38.25	3
0	53729	38.25	3
0	53730	38.25	3
0	53763	38.3	3
0	53764	38.3	3
0	53765	38.3	3
0	53766	38.3	3
0	53767	38.3	3
0	53768	38.3	3
0	53769	38.3	3
0	53770	38.3	3
0	53811	38.35	3
0	53812	38.35	3
0	53813	38.35	3
0	53814	38.35	3
0	53847	38.4	3
0	53848	38.4	3
0	53849	38.4	3
0	53850	38.4	3
0	53851	38.4	3
0	53852	38.4	3
0	53853	38.4	3
0	53854	38.4	3
0	53895	38.45	3
0	53896	38.45	3
0	53897	38.45	3
0	53898	38.45	3
0	53932	38.5	3
0	53933	38.5	3
0	53934	38.5	3
0	53935	38.5	3
0	53936	38.5	3
0	53937	38.5	3
0	53938	38.5	3
0	53939	38.5	3
0	54186	38.55	3
0	54187	38.55	3
0	54188	38.55	3
0	54189	38.55	3
0	54355	38.6	3
0	54356	38.6	3
0	54357	38.6	3
0	54358	38.6	3
0	54359	38.6	3
0	54360	38.6	3
0	54361	38.6	3
0	54362	38.6	3
0	54403	38.65	3
0	54404	38.65	3
0	54405	38.65	3
0	54406	38.65	3
0	54439	38.7	3
0	54440	38.7	3
0	54441	38.7	3
0	54442	38.7	3
0	54443	38.7	3
0	54444	38.7	3
0	54445	38.7	3
0	54446	38.7	3
0	54487	38.75	3
0	54488	38.75	3
0	54489	38.75	3
0	54490	38.75	3
0	54523	38.8	3
0	54524	38.8	3
0	54525	38.8	3
0	54526	38.8	3
0	54527	38.8	3
0	54528	38.8	3
0	54529	38.8	3
0	54530	38.8	3
0	54571	38.85	3
0	54572	38.85	3
0	54573	38.85	3
0	54574	38.85	3
0	54607	38.9	3
0	54608	38.9	3
0	54609	38.9	3
0	54610	38.9	3
0	54611	38.9	3
0	54612	38.9	3
0	54613	38.9	3
0	54614	38.9	3
0	54655	38.95	3
0	54656	38.95	3
0	54657	38.95	3
0	54658	38.95	3
0	54694	39	3
0	54695	39	3
0	54696	39	3
0	54697	39	3
0	54698	39	3
0	54699	39	3
0	54700	39	3
0	54701	39	3
0	54742	39.05	3
0	54743	39.05	3
0	54744	39.05	3
0	54745	39.05	3
0	54986	39.1	3
0	54987	39.1	3
0	54988	39.1	3
0	54989	39.1	3
0	54990	39.1	3
0	54991	39.1	3
0	54992	39.1	3
0	54993	39.1	3
0	55153	39.15	3
0	55154	39.15	3
0	55155	39.15	3
0	55156	39.15	3
0	55189	39.2	3
0	55190	39.2	3
0	55191	39.2	3
0	55192	39.2	3
0	55193	39.2	3
0	55194	39.2	3
0	55195	39.2	3
0	55196	39.2	3
0	55237	39.25	3
0	55238	39.25	3
0	55239	39.25	3
0	55240	39.25	3
0	55273	39.3	3
0	55274	39.3	3
0	55275	39.3	3
0	55276	39.3	3
0	55277	39.3	3
0	55278	39.3	3
0	55279	39.3	3
0	55280	39.3	3
0	55321	39.35	3
0	55322	39.35	3
0	55323	39.35	3
0	55324	39.35	3
0	55357	39.4	3
0	55358	39.4	3
0	55359	39.4	3
0	55360	39.4	3
0	55361	39.4	3
0	55362	39.4	3
0	55363	39.4	3
0	55364	39.4	3
0	55405	39.45	3
0	55406	39.45	3
0	55407	39.45	3
0	55408	39.45	3
0	55442	39.5	3
0	55443	39.5	3
0	55444	39.5	3
0	55445	39.5	3
0	55446	39.5	3
0	55447	39.5	3
0	55448	39.5	3
0	55449	39.5	3
0	55490	39.55	3
0	55491	39.55	3
0	55492	39.55	3
0	55493	39.55	3
0	55526	39.6	3
0	55527	39.6	3
0	55528	39.6	3
0	55529	39.6	3
0	55530	39.6	3
0	55531	39.6	3
0	55532	39.6	3
0	55533	39.6	3
0	55780	39.65	3
0	55781	39.65	3
0	55782	39.65	3
0	55783	39.65	3
0	55907	39.7	3
0	55908	39.7	3
0	55909	39.7	3
0	55910	39.7	3
0	55911	39.7	3
0	55912	39.7	3
0	55913	39.7	3
0	55914	39.7	3
0	55955	39.75	3
0	55956	39.75	3
0	55957	39.75	3
0	55958	39.75	3
0	55991	39.8	3
0	55992	39.8	3
0	55993	39.8	3
0	55994	39.8	3
0	55995	39.8	3
0	55996	39.8	3
0	55997	39.8	3
0	55998	39.8	3
0	56039	39.85	3
0	56040	39.85	3
0	56041	39.85	3
0	56042	39.85	3
0	56075	39.9	3
0	56076	39.9	3
0	56077	39.9	3
0	56078	39.9	3
0	56079	39.9	3
0	56080	39.9	3
0	56081	39.9	3
0	56082	39.9	3
0	56123	39.95	3
0	56124	39.95	3
0	56125	39.95	3
0	56126	39.95	3
0	56162	40	3
0	56163	40	3
0	56164	40	3
0	56165	40	3
0	56166	40	3
0	56167	40	3
0	56168	40	3
0	56169	40	3
0	56210	40.05	3
0	56211	40.05	3
0	56212	40.05	3
0	56213	40.05	3
0	56250	40.1	3
0	56251	40.1	3
0	56252	40.1	3
0	56253	40.1	3
0	56254	40.1	3
0	56255	40.1	3
0	56256	40.1	3
0	56257	40.1	3
0	56303	40.15	3
0	56304	40.15	3
0	56305	40.15	3
0	56306	40.15	3
0	56545	40.2	3
0	56546	40.2	3
0	56547	40.2	3
0	56548	40.2	3
0	56549	40.2	3
0	56550	40.2	3
0	56551	40.2	3
0	56552	40.2	3
0	56726	40.25	3
0	56727	40.25	3
0	56728	40.25	3
0	56729	40.25	3
0	56762	40.3	3
0	56763	40.3	3
0	56764	40.3	3
0	56765	40.3	3
0	56766	40.3	3
0	56767	40.3	3
0	56768	40.3	3
0	56769	40.3	3
0	56810	40.35	3
0	56811	40.35	3
0	56812	40.35	3
0	56813	40.35	3
0	56846	40.4	3
0	56847	40.4	3
0	56848	40.4	3
0	56849	40.4	3
0	56850	40.4	3
0	56851	40.4	3
0	56852	40.4	3
0	56853	40.4	3
0	56894	40.45	3
0	56895	40.45	3
0	56896	40.45	3
0	56897	40.45	3
0	56931	40.5	3
0	56932	40.5	3
0	56933	40.5	3
0	56934	40.5	3
0	56935	40.5	3
0	56936	40.5	3
0	56937	40.5	3
0	56938	40.5	3
0	56979	40.55	3
0	56980	40.55	3
0	56981	40.55	3
0	56982	40.55	3
0	57015	40.6	3
0	57016	40.6	3
0	57017	40.6	3
0	57018	40.6	3
0	57019	40.6	3
0	57020	40.6	3
0	57021	40.6	3
0	57022	40.6	3
0	57063	40.65	3
0	57064	40.65	3
0	57065	40.65	3
0	57066	40.65	3
0	57099	40.7	3
0	57100	40.7	3
0	57101	40.7	3
0	57102	40.7	3
0	57103	40.7	3
0	57104	40.7	3
0	57105	40.7	3
0	57106	40.7	3
0	57351	40.75	3
0	57352	40.75	3
0	57353	40.75	3
0	57354	40.75	3
0	57459	40.8	3
0	57460	40.8	3
0	57461	40.8	3
0	57462	40.8	3
0	57463	40.8	3
0	57464	40.8	3
0	57465	40.8	3
0	57466	40.8	3
0	57507	40.85	3
0	57508	40.85	3
0	57509	40.85	3
0	57510	40.85	3
0	57543	40.9	3
0	57544	40.9	3
0	57545	40.9	3
0	57546	40.9	3
0	57547	40.9	3
0	57548	40.9	3
0	57549	40.9	3
0	57550	40.9	3
0	57591	40.95	3
0	57592	40.95	3
0	57593	40.95	3
0	57594	40.95	3
0	57630	41	3
0	57631	41	3
0	57632	41	3
0	57633	41	3
0	57634	41	3
0	57635	41	3
0	57636	41	3
0	57637	41	3
0	57678	41.05	3
0	57679	41.05	3
0	57680	41.05	3
0	57681	41.05	3
0	57718	41.1	3
0	57719	41.1	3
0	57720	41.1	3
0	57721	41.1	3
0	57722	41.1	3
0	57723	41.1	3
0	57724	41.1	3
0	57725	41.1	3
0	57771	41.15	3
0	57772	41.15	3
0	57773	41.15	3
0	57774	41.15	3
0	57807	41.2	3
0	57808	41.2	3
0	57809	41.2	3
0	57810	41.2	3
0	57811	41.2	3
0	57812	41.2	3
0	57813	41.2	3
0	57814	41.2	3
0	57855	41.25	3
0	57856	41.25	3
0	57857	41.25	3
0	57858	41.25	3
0	58097	41.3	3
0	58098	41.3	3
0	58099	41.3	3
0	58100	41.3	3
0	58101	41.3	3
0	58102	41.3	3
0	58103	41.3	3
0	58104	41.3	3
0	58278	41.35	3
0	58279	41.35	3
0	58280	41.35	3
0	58281	41.35	3
0	58314	41.4	3
0	58315	41.4	3
0	58316	41.4	3
0	58317	41.4	3
0	58318	41.4	3
0	58319	41.4	3
0	58320	41.4	3
0	58321	41.4	3
0	58362	41.45	3
0	58363	41.45	3
0	58364	41.45	3
0	58365	41.45	3
0	58399	41.5	3
0	58400	41.5	3
0	58401	41.5	3
0	58402	41.5	3
0	58403	41.5	3
0	58404	41.5	3
0	58405	41.5	3
0	58406	41.5	3
0	58447	41.55	3
0	58448	41.55	3
0	58449	41.55	3
0	58450	41.55	3
0	58483	41.6	3
0	58484	41.6	3
0	58485	41.6	3
0	58486	41.6	3
0	58487	41.6	3
0	58488	41.6	3
0	58489	41.6	3
0	58490	41.6	3
0	58531	41.65	3
0	58532	41.65	3
0	58533	41.65	3
0	58534	41.65	3
0	58567	41.7	3
0	58568	41.7	3
0	58569	41.7	3
0	58570	41.7	3
0	58571	41.7	3
0	58572	41.7	3
0	58573	41.7	3
0	58574	41.7	3
0	58615	41.75	3
0	58616	41.75	3
0	58617	41.75	3
0	58618	41.75	3
0	58651	41.8	3
0	58652	41.8	3
0	58653	41.8	3
0	58654	41.8	3
0	58655	41.8	3
0	58656	41.8	3
0	58657	41.8	3
0	58658	41.8	3
0	58903	41.85	3
0	58904	41.85	3
0	58905	41.85	3
0	58906	41.85	3
0	59011	41.9	3
0	59012	41.9	3
0	59013	41.9	3
0	59014	41.9	3
0	59015	41.9	3
0	59016	41.9	3
0	59017	41.9	3
0	59018	41.9	3
0	59059	41.95	3
0	59060	41.95	3
0	59061	41.95	3
0	59062	41.95	3
0	59098	42	3
0	59099	42	3
0	59100	42	3
0	59101	42	3
0	59102	42	3
0	59103	42	3
0	59104	42	3
0	59105	42	3
0	59146	42.05	3
0	59147	42.05	3
0	59148	42.05	3
0	59149	42.05	3
0	59186	42.1	3
0	59187	42.1	3
0	59188	42.1	3
0	59189	42.1	3
0	59190	42.1	3
0	59191	42.1	3
0	59192	42.1	3
0	59193	42.1	3
0	59239	42.15	3
0	59240	42.15	3
0	59241	42.15	3
0	59242	42.15	3
0	59275	42.2	3
0	59276	42.2	3
0	59277	42.2	3
0	59278	42.2	3
0	59279	42.2	3
0	59280	42.2	3
0	59281	42.2	3
0	59282	42.2	3
0	59323	42.25	3
0	59324	42.25	3
0	59325	42.25	3
0	59326	42.25	3
0	59359	42.3	3
0	59360	42.3	3
0	59361	42.3	3
0	59362	42.3	3
0	59363	42.3	3
0	59364	42.3	3
0	59365	42.3	3
0	59366	42.3	3
0	59407	42.35	3
0	59408	42.35	3
0	59409	42.35	3
0	59410	42.35	3
0	59649	42.4	3
0	59650	42.4	3
0	59651	42.4	3
0	59652	42.4	3
0	59653	42.4	3
0	59654	42.4	3
0	59655	42.4	3
0	59656	42.4	3
0	59830	42.45	3
0	59831	42.45	3
0	59832	42.45	3
0	59833	42.45	3
0	59867	42.5	3
0	59868	42.5	3
0	59869	42.5	3
0	59870	42.5	3
0	59871	42.5	3
0	59872	42.5	3
0	59873	42.5	3
0	59874	42.5	3
0	59915	42.55	3
0	59916	42.55	3
0	59917	42.55	3
0	59918	42.55	3
0	59951	42.6	3
0	59952	42.6	3
0	59953	42.6	3
0	59954	42.6	3
0	59955	42.6	3
0	59956	42.6	3
0	59957	42.6	3
0	59958	42.6	3
0	59999	42.65	3
0	60000	42.65	3
0	60001	42.65	3
0	60002	42.65	3
0	60035	42.7	3
0	60036	42.7	3
0	60037	42.7	3
0	60038	42.7	3
0	60039	42.7	3
0	60040	42.7	3
0	60041	42.7	3
0	60042	42.7	3
0	60083	42.75	3
0	60084	42.75	3
0	60085	42.75	3
0	60086	42.75	3
0	60119	42.8	3
0	60120	42.8	3
0	60121	42.8	3
0	60122	42.8	3
0	60123	42.8	3
0	60124	42.8	3
0	60125	42.8	3
0	60126	42.8	3
0	60167	42.85	3
0	60168	42.85	3
0	60169	42.85	3
0	60170	42.85	3
0	60203	42.9	3
0	60204	42.9	3
0	60205	42.9	3
0	60206	42.9	3
0	60207	42.9	3
0	60208	42.9	3
0	60209	42.9	3
0	60210	42.9	3
0	60455	42.95	3
0	60456	42.95	3
0	60457	42.95	3
0	60458	42.95	3
0	60566	43	3
0	60567	43	3
0	60568	43	3
0	60569	43	3
0	60570	43	3
0	60571	43	3
0	60572	43	3
0	60573	43	3
0	60614	43.05	3
0	60615	43.05	3
0	60616	43.05	3
0	60617	43.05	3
0	60654	43.1	3
0	60655	43.1	3
0	60656	43.1	3
0	60657	43.1	3
0	60658	43.1	3
0	60659	43.1	3
0	60660	43.1	3
0	60661	43.1	3
0	60707	43.15	3
0	60708	43.15	3
0	60709	43.15	3
0	60710	43.15	3
0	60743	43.2	3
0	60744	43.2	3
[...]
0	263020	190.35	3
0	263021	190.35	3
0	263022	190.35	3
0	263127	190.4	3
0	263128	190.4	3
0	263129	190.4	3
0	263130	190.4	3
0	263131	190.4	3
0	263132	190.4	3
0	263133	190.4	3
0	263134	190.4	3
0	263175	190.45	3
0	263176	190.45	3
0	263177	190.45	3
0	263178	190.45	3
0	263212	190.5	3
0	263213	190.5	3
0	263214	190.5	3
0	263215	190.5	3
0	263216	190.5	3
0	263217	190.5	3
0	263218	190.5	3
0	263219	190.5	3
0	263260	190.55	3
0	263261	190.55	3
0	263262	190.55	3
0	263263	190.55	3
0	263296	190.6	3
0	263297	190.6	3
0	263298	190.6	3
0	263299	190.6	3
0	263300	190.6	3
0	263301	190.6	3
0	263302	190.6	3
0	263303	190.6	3
0	263344	190.65	3
0	263345	190.65	3
0	263346	190.65	3
0	263347	190.65	3
0	263380	190.7	3
0	263381	190.7	3
0	263382	190.7	3
0	263383	190.7	3
0	263384	190.7	3
0	263385	190.7	3
0	263386	190.7	3
0	263387	190.7	3
0	263428	190.75	3
0	263429	190.75	3
0	263430	190.75	3
0	263431	190.75	3
0	263464	190.8	3
0	263465	190.8	3
0	263466	190.8	3
0	263467	190.8	3
0	263468	190.8	3
0	263469	190.8	3
0	263470	190.8	3
0	263471	190.8	3
0	263512	190.85	3
0	263513	190.85	3
0	263514	190.85	3
0	263515	190.85	3
0	263752	190.9	3
0	263753	190.9	3
0	263754	190.9	3
0	263755	190.9	3
0	263756	190.9	3
0	263757	190.9	3
0	263758	190.9	3
0	263759	190.9	3
0	263872	190.95	3
0	263873	190.95	3
0	263874	190.95	3
0	263875	190.95	3
0	263911	191	3
0	263912	191	3
0	263913	191	3
0	263914	191	3
0	263915	191	3
0	263916	191	3
0	263917	191	3
0	263918	191	3
0	263959	191.05	3
0	263960	191.05	3
0	263961	191.05	3
0	263962	191.05	3
0	263995	191.1	3
0	263996	191.1	3
0	263997	191.1	3
0	263998	191.1	3
0	263999	191.1	3
0	264000	191.1	3
0	264001	191.1	3
0	264002	191.1	3
0	264043	191.15	3
0	264044	191.15	3
0	264045	191.15	3
0	264046	191.15	3
0	264079	191.2	3
0	264080	191.2	3
0	264081	191.2	3
0	264082	191.2	3
0	264083	191.2	3
0	264084	191.2	3
0	264085	191.2	3
0	264086	191.2	3
0	264127	191.25	3
0	264128	191.25	3
0	264129	191.25	3
0	264130	191.25	3
0	264163	191.3	3
0	264164	191.3	3
0	264165	191.3	3
0	264166	191.3	3
0	264167	191.3	3
0	264168	191.3	3
0	264169	191.3	3
0	264170	191.3	3
0	264211	191.35	3
0	264212	191.35	3
0	264213	191.35	3
0	264214	191.35	3
0	264247	191.4	3
0	264248	191.4	3
0	264249	191.4	3
0	264250	191.4	3
0	264251	191.4	3
0	264252	191.4	3
0	264253	191.4	3
0	264254	191.4	3
0	264499	191.45	3
0	264500	191.45	3
0	264501	191.45	3
0	264502	191.45	3
0	264608	191.5	3
0	264609	191.5	3
0	264610	191.5	3
0	264611	191.5	3
0	264612	191.5	3
0	264613	191.5	3
0	264614	191.5	3
0	264615	191.5	3
0	264656	191.55	3
0	264657	191.55	3
0	264658	191.55	3
0	264659	191.55	3
0	264692	191.6	3
0	264693	191.6	3
0	264694	191.6	3
0	264695	191.6	3
0	264696	191.6	3
0	264697	191.6	3
0	264698	191.6	3
0	264699	191.6	3
0	264740	191.65	3
0	264741	191.65	3
0	264742	191.65	3
0	264743	191.65	3
0	264776	191.7	3
0	264777	191.7	3
0	264778	191.7	3
0	264779	191.7	3
0	264780	191.7	3
0	264781	191.7	3
0	264782	191.7	3
0	264783	191.7	3
0	264824	191.75	3
0	264825	191.75	3
0	264826	191.75	3
0	264827	191.75	3
0	264860	191.8	3
0	264861	191.8	3
0	264862	191.8	3
0	264863	191.8	3
0	264864	191.8	3
0	264865	191.8	3
0	264866	191.8	3
0	264867	191.8	3
0	264908	191.85	3
0	264909	191.85	3
0	264910	191.85	3
0	264911	191.85	3
0	264944	191.9	3
0	264945	191.9	3
0	264946	191.9	3
0	264947	191.9	3
0	264948	191.9	3
0	264949	191.9	3
0	264950	191.9	3
0	264951	191.9	3
0	264992	191.95	3
0	264993	191.95	3
0	264994	191.95	3
0	264995	191.95	3
0	265235	192	3
0	265236	192	3
0	265237	192	3
0	265238	192	3
0	265239	192	3
0	265240	192	3
0	265241	192	3
0	265242	192	3
0	265355	192.05	3
0	265356	192.05	3
0	265357	192.05	3
0	265358	192.05	3
0	265391	192.1	3
0	265392	192.1	3
0	265393	192.1	3
0	265394	192.1	3
0	265395	192.1	3
0	265396	192.1	3
0	265397	192.1	3
0	265398	192.1	3
0	265439	192.15	3
0	265440	192.15	3
0	265441	192.15	3
0	265442	192.15	3
0	265475	192.2	3
0	265476	192.2	3
0	265477	192.2	3
0	265478	192.2	3
0	265479	192.2	3
0	265480	192.2	3
0	265481	192.2	3
0	265482	192.2	3
0	265523	192.25	3
0	265524	192.25	3
0	265525	192.25	3
0	265526	192.25	3
0	265559	192.3	3
0	265560	192.3	3
0	265561	192.3	3
0	265562	192.3	3
0	265563	192.3	3
0	265564	192.3	3
0	265565	192.3	3
0	265566	192.3	3
0	265607	192.35	3
0	265608	192.35	3
0	265609	192.35	3
0	265610	192.35	3
0	265643	192.4	3
0	265644	192.4	3
0	265645	192.4	3
0	265646	192.4	3
0	265647	192.4	3
0	265648	192.4	3
0	265649	192.4	3
0	265650	192.4	3
0	265691	192.45	3
0	265692	192.45	3
0	265693	192.45	3
0	265694	192.45	3
0	265728	192.5	3
0	265729	192.5	3
0	265730	192.5	3
0	265731	192.5	3
0	265732	192.5	3
0	265733	192.5	3
0	265734	192.5	3
0	265735	192.5	3
0	265980	192.55	3
0	265981	192.55	3
0	265982	192.55	3
0	265983	192.55	3
0	266088	192.6	3
0	266089	192.6	3
0	266090	192.6	3
0	266091	192.6	3
0	266092	192.6	3
0	266093	192.6	3
0	266094	192.6	3
0	266095	192.6	3
0	266136	192.65	3
0	266137	192.65	3
0	266138	192.65	3
0	266139	192.65	3
0	266172	192.7	3
0	266173	192.7	3
0	266174	192.7	3
0	266175	192.7	3
0	266176	192.7	3
0	266177	192.7	3
0	266178	192.7	3
0	266179	192.7	3
0	266220	192.75	3
0	266221	192.75	3
0	266222	192.75	3
0	266223	192.75	3
0	266256	192.8	3
0	266257	192.8	3
0	266258	192.8	3
0	266259	192.8	3
0	266260	192.8	3
0	266261	192.8	3
0	266262	192.8	3
0	266263	192.8	3
0	266304	192.85	3
0	266305	192.85	3
0	266306	192.85	3
0	266307	192.85	3
0	266340	192.9	3
0	266341	192.9	3
0	266342	192.9	3
0	266343	192.9	3
0	266344	192.9	3
0	266345	192.9	3
0	266346	192.9	3
0	266347	192.9	3
0	266388	192.95	3
0	266389	192.95	3
0	266390	192.95	3
0	266391	192.95	3
0	266427	193	3
0	266428	193	3
0	266429	193	3
0	266430	193	3
0	266431	193	3
0	266432	193	3
0	266433	193	3
0	266434	193	3
0	266475	193.05	3
0	266476	193.05	3
0	266477	193.05	3
0	266478	193.05	3
0	266715	193.1	3
0	266716	193.1	3
0	266717	193.1	3
0	266718	193.1	3
0	266719	193.1	3
0	266720	193.1	3
0	266721	193.1	3
0	266722	193.1	3
0	266835	193.15	3
0	266836	193.15	3
0	266837	193.15	3
0	266838	193.15	3
0	266871	193.2	3
0	266872	193.2	3
0	266873	193.2	3
0	266874	193.2	3
0	266875	193.2	3
0	266876	193.2	3
0	266877	193.2	3
0	266878	193.2	3
0	266919	193.25	3
0	266920	193.25	3
0	266921	193.25	3
0	266922	193.25	3
0	266955	193.3	3
0	266956	193.3	3
0	266957	193.3	3
0	266958	193.3	3
0	266959	193.3	3
0	266960	193.3	3
0	266961	193.3	3
0	266962	193.3	3
0	267003	193.35	3
0	267004	193.35	3
0	267005	193.35	3
0	267006	193.35	3
0	267039	193.4	3
0	267040	193.4	3
0	267041	193.4	3
0	267042	193.4	3
0	267043	193.4	3
0	267044	193.4	3
0	267045	193.4	3
0	267046	193.4	3
0	267087	193.45	3
0	267088	193.45	3
0	267089	193.45	3
0	267090	193.45	3
0	267124	193.5	3
0	267125	193.5	3
0	267126	193.5	3
0	267127	193.5	3
0	267128	193.5	3
0	267129	193.5	3
0	267130	193.5	3
0	267131	193.5	3
0	267172	193.55	3
0	267173	193.55	3
0	267174	193.55	3
0	267175	193.55	3
0	267208	193.6	3
0	267209	193.6	3
0	267210	193.6	3
0	267211	193.6	3
0	267212	193.6	3
0	267213	193.6	3
0	267214	193.6	3
0	267215	193.6	3
0	267460	193.65	3
0	267461	193.65	3
0	267462	193.65	3
0	267463	193.65	3
0	267568	193.7	3
0	267569	193.7	3
0	267570	193.7	3
0	267571	193.7	3
0	267572	193.7	3
0	267573	193.7	3
0	267574	193.7	3
0	267575	193.7	3
0	267616	193.75	3
0	267617	193.75	3
0	267618	193.75	3
0	267619	193.75	3
0	267652	193.8	3
0	267653	193.8	3
0	267654	193.8	3
0	267655	193.8	3
0	267656	193.8	3
0	267657	193.8	3
0	267658	193.8	3
0	267659	193.8	3
0	267700	193.85	3
0	267701	193.85	3
0	267702	193.85	3
0	267703	193.85	3
0	267736	193.9	3
0	267737	193.9	3
0	267738	193.9	3
0	267739	193.9	3
0	267740	193.9	3
0	267741	193.9	3
0	267742	193.9	3
0	267743	193.9	3
0	267784	193.95	3
0	267785	193.95	3
0	267786	193.95	3
0	267787	193.95	3
0	267823	194	3
0	267824	194	3
0	267825	194	3
0	267826	194	3
0	267827	194	3
0	267828	194	3
0	267829	194	3
0	267830	194	3
0	267871	194.05	3
0	267872	194.05	3
0	267873	194.05	3
0	267874	194.05	3
0	267907	194.1	3
0	267908	194.1	3
0	267909	194.1	3
0	267910	194.1	3
0	267911	194.1	3
0	267912	194.1	3
0	267913	194.1	3
0	267914	194.1	3
0	267955	194.15	3
0	267956	194.15	3
0	267957	194.15	3
0	267958	194.15	3
0	268195	194.2	3
0	268196	194.2	3
0	268197	194.2	3
0	268198	194.2	3
0	268199	194.2	3
0	268200	194.2	3
0	268201	194.2	3
0	268202	194.2	3
0	268315	194.25	3
0	268316	194.25	3
0	268317	194.25	3
0	268318	194.25	3
0	268351	194.3	3
0	268352	194.3	3
0	268353	194.3	3
0	268354	194.3	3
0	268355	194.3	3
0	268356	194.3	3
0	268357	194.3	3
0	268358	194.3	3
0	268399	194.35	3
0	268400	194.35	3
0	268401	194.35	3
0	268402	194.35	3
0	268435	194.4	3
0	268436	194.4	3
0	268437	194.4	3
0	268438	194.4	3
0	268439	194.4	3
0	268440	194.4	3
0	268441	194.4	3
0	268442	194.4	3
0	268483	194.45	3
0	268484	194.45	3
0	268485	194.45	3
0	268486	194.45	3
0	268520	194.5	3
0	268521	194.5	3
0	268522	194.5	3
0	268523	194.5	3
0	268524	194.5	3
0	268525	194.5	3
0	268526	194.5	3
0	268527	194.5	3
0	268568	194.55	3
0	268569	194.55	3
0	268570	194.55	3
0	268571	194.55	3
0	268604	194.6	3
0	268605	194.6	3
0	268606	194.6	3
0	268607	194.6	3
0	268608	194.6	3
0	268609	194.6	3
0	268610	194.6	3
0	268611	194.6	3
0	268652	194.65	3
0	268653	194.65	3
0	268654	194.65	3
0	268655	194.65	3
0	268688	194.7	3
0	268689	194.7	3
0	268690	194.7	3
0	268691	194.7	3
0	268692	194.7	3
0	268693	194.7	3
0	268694	194.7	3
0	268695	194.7	3
0	268940	194.75	3
0	268941	194.75	3
0	268942	194.75	3
0	268943	194.75	3
0	269048	194.8	3
0	269049	194.8	3
0	269050	194.8	3
0	269051	194.8	3
0	269052	194.8	3
0	269053	194.8	3
0	269054	194.8	3
0	269055	194.8	3
0	269096	194.85	3
0	269097	194.85	3
0	269098	194.85	3
0	269099	194.85	3
0	269132	194.9	3
0	269133	194.9	3
0	269134	194.9	3
0	269135	194.9	3
0	269136	194.9	3
0	269137	194.9	3
0	269138	194.9	3
0	269139	194.9	3
0	269180	194.95	3
0	269181	194.95	3
0	269182	194.95	3
0	269183	194.95	3
0	269219	195	3
0	269220	195	3
0	269221	195	3
0	269222	195	3
0	269223	195	3
0	269224	195	3
0	269225	195	3
0	269226	195	3
0	269267	195.05	3
0	269268	195.05	3
0	269269	195.05	3
0	269270	195.05	3
0	269303	195.1	3
0	269304	195.1	3
0	269305	195.1	3
0	269306	195.1	3
0	269307	195.1	3
0	269308	195.1	3
0	269309	195.1	3
0	269310	195.1	3
0	269351	195.15	3
0	269352	195.15	3
0	269353	195.15	3
0	269354	195.15	3
0	269387	195.2	3
0	269388	195.2	3
0	269389	195.2	3
0	269390	195.2	3
0	269391	195.2	3
0	269392	195.2	3
0	269393	195.2	3
0	269394	195.2	3
0	269435	195.25	3
0	269436	195.25	3
0	269437	195.25	3
0	269438	195.25	3
0	269675	195.3	3
0	269676	195.3	3
0	269677	195.3	3
0	269678	195.3	3
0	269679	195.3	3
0	269680	195.3	3
0	269681	195.3	3
0	269682	195.3	3
0	269795	195.35	3
0	269796	195.35	3
0	269797	195.35	3
0	269798	195.35	3
0	269831	195.4	3
0	269832	195.4	3
0	269833	195.4	3
0	269834	195.4	3
0	269835	195.4	3
0	269836	195.4	3
0	269837	195.4	3
0	269838	195.4	3
0	269879	195.45	3
0	269880	195.45	3
0	269881	195.45	3
0	269882	195.45	3
0	269916	195.5	3
0	269917	195.5	3
0	269918	195.5	3
0	269919	195.5	3
0	269920	195.5	3
0	269921	195.5	3
0	269922	195.5	3
0	269923	195.5	3
0	269964	195.55	3
0	269965	195.55	3
0	269966	195.55	3
0	269967	195.55	3
0	270000	195.6	3
0	270001	195.6	3
0	270002	195.6	3
0	270003	195.6	3
0	270004	195.6	3
0	270005	195.6	3
0	270006	195.6	3
0	270007	195.6	3
0	270048	195.65	3
0	270049	195.65	3
0	270050	195.65	3
0	270051	195.65	3
0	270084	195.7	3
0	270085	195.7	3
0	270086	195.7	3
0	270087	195.7	3
0	270088	195.7	3
0	270089	195.7	3
0	270090	195.7	3
0	270091	195.7	3
0	270132	195.75	3
0	270133	195.75	3
0	270134	195.75	3
0	270135	195.75	3
0	270168	195.8	3
0	270169	195.8	3
0	270170	195.8	3
0	270171	195.8	3
0	270172	195.8	3
0	270173	195.8	3
0	270174	195.8	3
0	270175	195.8	3
0	270420	195.85	3
0	270421	195.85	3
0	270422	195.85	3
0	270423	195.85	3
0	270528	195.9	3
0	270529	195.9	3
0	270530	195.9	3
0	270531	195.9	3
0	270532	195.9	3
0	270533	195.9	3
0	270534	195.9	3
0	270535	195.9	3
0	270576	195.95	3
0	270577	195.95	3
0	270578	195.95	3
0	270579	195.95	3
0	270615	196	3
0	270616	196	3
0	270617	196	3
0	270618	196	3
0	270619	196	3
0	270620	196	3
0	270621	196	3
0	270622	196	3
0	270663	196.05	3
0	270664	196.05	3
0	270665	196.05	3
0	270666	196.05	3
0	270699	196.1	3
0	270700	196.1	3
0	270701	196.1	3
0	270702	196.1	3
0	270703	196.1	3
0	270704	196.1	3
0	270705	196.1	3
0	270706	196.1	3
0	270747	196.15	3
0	270748	196.15	3
0	270749	196.15	3
0	270750	196.15	3
0	270783	196.2	3
0	270784	196.2	3
0	270785	196.2	3
0	270786	196.2	3
0	270787	196.2	3
0	270788	196.2	3
0	270789	196.2	3
0	270790	196.2	3
0	270831	196.25	3
0	270832	196.25	3
0	270833	196.25	3
0	270834	196.25	3
0	270867	196.3	3
0	270868	196.3	3
0	270869	196.3	3
0	270870	196.3	3
0	270871	196.3	3
0	270872	196.3	3
0	270873	196.3	3
0	270874	196.3	3
0	270915	196.35	3
0	270916	196.35	3
0	270917	196.35	3
0	270918	196.35	3
0	271155	196.4	3
0	271156	196.4	3
0	271157	196.4	3
0	271158	196.4	3
0	271159	196.4	3
0	271160	196.4	3
0	271161	196.4	3
0	271162	196.4	3
0	271275	196.45	3
0	271276	196.45	3
0	271277	196.45	3
0	271278	196.45	3
0	271312	196.5	3
0	271313	196.5	3
0	271314	196.5	3
0	271315	196.5	3
0	271316	196.5	3
0	271317	196.5	3
0	271318	196.5	3
0	271319	196.5	3
0	271360	196.55	3
0	271361	196.55	3
0	271362	196.55	3
0	271363	196.55	3
0	271396	196.6	3
0	271397	196.6	3
0	271398	196.6	3
0	271399	196.6	3
0	271400	196.6	3
0	271401	196.6	3
0	271402	196.6	3
0	271403	196.6	3
0	271444	196.65	3
0	271445	196.65	3
0	271446	196.65	3
0	271447	196.65	3
0	271480	196.7	3
0	271481	196.7	3
0	271482	196.7	3
0	271483	196.7	3
0	271484	196.7	3
0	271485	196.7	3
0	271486	196.7	3
0	271487	196.7	3
0	271528	196.75	3
0	271529	196.75	3
0	271530	196.75	3
0	271531	196.75	3
0	271564	196.8	3
0	271565	196.8	3
0	271566	196.8	3
0	271567	196.8	3
0	271568	196.8	3
0	271569	196.8	3
0	271570	196.8	3
0	271571	196.8	3
0	271612	196.85	3
0	271613	196.85	3
0	271614	196.85	3
0	271615	196.85	3
0	271648	196.9	3
0	271649	196.9	3
0	271650	196.9	3
0	271651	196.9	3
0	271652	196.9	3
0	271653	196.9	3
0	271654	196.9	3
0	271655	196.9	3
0	271900	196.95	3
0	271901	196.95	3
0	271902	196.95	3
0	271903	196.95	3
0	272011	197	3
0	272012	197	3
0	272013	197	3
0	272014	197	3
0	272015	197	3
0	272016	197	3
0	272017	197	3
0	272018	197	3
0	272059	197.05	3
0	272060	197.05	3
0	272061	197.05	3
0	272062	197.05	3
0	272095	197.1	3
0	272096	197.1	3
0	272097	197.1	3
0	272098	197.1	3
0	272099	197.1	3
0	272100	197.1	3
0	272101	197.1	3
0	272102	197.1	3
0	272143	197.15	3
0	272144	197.15	3
0	272145	197.15	3
0	272146	197.15	3
0	272179	197.2	3
0	272180	197.2	3
0	272181	197.2	3
0	272182	197.2	3
0	272183	197.2	3
0	272184	197.2	3
0	272185	197.2	3
0	272186	197.2	3
0	272227	197.25	3
0	272228	197.25	3
0	272229	197.25	3
0	272230	197.25	3
0	272263	197.3	3
0	272264	197.3	3
0	272265	197.3	3
0	272266	197.3	3
0	272267	197.3	3
0	272268	197.3	3
0	272269	197.3	3
0	272270	197.3	3
0	272311	197.35	3
0	272312	197.35	3
0	272313	197.35	3
0	272314	197.35	3
0	272347	197.4	3
0	272348	197.4	3
0	272349	197.4	3
0	272350	197.4	3
0	272351	197.4	3
0	272352	197.4	3
0	272353	197.4	3
0	272354	197.4	3
0	272395	197.45	3
0	272396	197.45	3
0	272397	197.45	3
0	272398	197.45	3
0	272636	197.5	3
0	272637	197.5	3
0	272638	197.5	3
0	272639	197.5	3
0	272640	197.5	3
0	272641	197.5	3
0	272642	197.5	3
0	272643	197.5	3
0	272756	197.55	3
0	272757	197.55	3
0	272758	197.55	3
0	272759	197.55	3
0	272792	197.6	3
0	272793	197.6	3
0	272794	197.6	3
0	272795	197.6	3
0	272796	197.6	3
0	272797	197.6	3
0	272798	197.6	3
0	272799	197.6	3
0	272840	197.65	3
0	272841	197.65	3
0	272842	197.65	3
0	272843	197.65	3
0	272876	197.7	3
0	272877	197.7	3
0	272878	197.7	3
0	272879	197.7	3
0	272880	197.7	3
0	272881	197.7	3
0	272882	197.7	3
0	272883	197.7	3
0	272924	197.75	3
0	272925	197.75	3
0	272926	197.75	3
0	272927	197.75	3
0	272960	197.8	3
0	272961	197.8	3
0	272962	197.8	3
0	272963	197.8	3
0	272964	197.8	3
0	272965	197.8	3
0	272966	197.8	3
0	272967	197.8	3
0	273008	197.85	3
0	273009	197.85	3
0	273010	197.85	3
0	273011	197.85	3
0	273044	197.9	3
0	273045	197.9	3
0	273046	197.9	3
0	273047	197.9	3
0	273048	197.9	3
0	273049	197.9	3
0	273050	197.9	3
0	273051	197.9	3
0	273092	197.95	3
0	273093	197.95	3
0	273094	197.95	3
0	273095	197.95	3
0	273131	198	3
0	273132	198	3
0	273133	198	3
0	273134	198	3
0	273135	198	3
0	273136	198	3
0	273137	198	3
0	273138	198	3
0	273383	198.05	3
0	273384	198.05	3
0	273385	198.05	3
0	273386	198.05	3
0	273491	198.1	3
0	273492	198.1	3
0	273493	198.1	3
0	273494	198.1	3
0	273495	198.1	3
0	273496	198.1	3
0	273497	198.1	3
0	273498	198.1	3
0	273539	198.15	3
0	273540	198.15	3
0	273541	198.15	3
0	273542	198.15	3
0	273575	198.2	3
0	273576	198.2	3
0	273577	198.2	3
0	273578	198.2	3
0	273579	198.2	3
0	273580	198.2	3
0	273581	198.2	3
0	273582	198.2	3
0	273623	198.25	3
0	273624	198.25	3
0	273625	198.25	3
0	273626	198.25	3
0	273659	198.3	3
0	273660	198.3	3
0	273661	198.3	3
0	273662	198.3	3
0	273663	198.3	3
0	273664	198.3	3
0	273665	198.3	3
0	273666	198.3	3
0	273707	198.35	3
0	273708	198.35	3
0	273709	198.35	3
0	273710	198.35	3
0	273743	198.4	3
0	273744	198.4	3
0	273745	198.4	3
0	273746	198.4	3
0	273747	198.4	3
0	273748	198.4	3
0	273749	198.4	3
0	273750	198.4	3
0	273791	198.45	3
0	273792	198.45	3
0	273793	198.45	3
0	273794	198.45	3
0	273828	198.5	3
0	273829	198.5	3
0	273830	198.5	3
0	273831	198.5	3
0	273832	198.5	3
0	273833	198.5	3
0	273834	198.5	3
0	273835	198.5	3
0	273876	198.55	3
0	273877	198.55	3
0	273878	198.55	3
0	273879	198.55	3
0	274116	198.6	3
0	274117	198.6	3
0	274118	198.6	3
0	274119	198.6	3
0	274120	198.6	3
0	274121	198.6	3
0	274122	198.6	3
0	274123	198.6	3
0	274236	198.65	3
0	274237	198.65	3
0	274238	198.65	3
0	274239	198.65	3
0	274272	198.7	3
0	274273	198.7	3
0	274274	198.7	3
0	274275	198.7	3
0	274276	198.7	3
0	274277	198.7	3
0	274278	198.7	3
0	274279	198.7	3
0	274320	198.75	3
0	274321	198.75	3
0	274322	198.75	3
0	274323	198.75	3
0	274356	198.8	3
0	274357	198.8	3
0	274358	198.8	3
0	274359	198.8	3
0	274360	198.8	3
0	274361	198.8	3
0	274362	198.8	3
0	274363	198.8	3
0	274404	198.85	3
0	274405	198.85	3
0	274406	198.85	3
0	274407	198.85	3
0	274440	198.9	3
0	274441	198.9	3
0	274442	198.9	3
0	274443	198.9	3
0	274444	198.9	3
0	274445	198.9	3
0	274446	198.9	3
0	274447	198.9	3
0	274488	198.95	3
0	274489	198.95	3
0	274490	198.95	3
0	274491	198.95	3
0	274527	199	3
0	274528	199	3
0	274529	199	3
0	274530	199	3
0	274531	199	3
0	274532	199	3
0	274533	199	3
0	274534	199	3
0	274575	199.05	3
0	274576	199.05	3
0	274577	199.05	3
0	274578	199.05	3
0	274611	199.1	3
0	274612	199.1	3
0	274613	199.1	3
0	274614	199.1	3
0	274615	199.1	3
0	274616	199.1	3
0	274617	199.1	3
0	274618	199.1	3
0	274863	199.15	3
0	274864	199.15	3
0	274865	199.15	3
0	274866	199.15	3
0	274971	199.2	3
0	274972	199.2	3
0	274973	199.2	3
0	274974	199.2	3
0	274975	199.2	3
0	274976	199.2	3
0	274977	199.2	3
0	274978	199.2	3
0	275019	199.25	3
0	275020	199.25	3
0	275021	199.25	3
0	275022	199.25	3
0	275055	199.3	3
0	275056	199.3	3
0	275057	199.3	3
0	275058	199.3	3
0	275059	199.3	3
0	275060	199.3	3
0	275061	199.3	3
0	275062	199.3	3
0	275103	199.35	3
0	275104	199.35	3
0	275105	199.35	3
0	275106	199.35	3
0	275139	199.4	3
0	275140	199.4	3
0	275141	199.4	3
0	275142	199.4	3
0	275143	199.4	3
0	275144	199.4	3
0	275145	199.4	3
0	275146	199.4	3
0	275187	199.45	3
0	275188	199.45	3
0	275189	199.45	3
0	275190	199.45	3
0	275224	199.5	3
0	275225	199.5	3
0	275226	199.5	3
0	275227	199.5	3
0	275228	199.5	3
0	275229	199.5	3
0	275230	199.5	3
0	275231	199.5	3
0	275272	199.55	3
0	275273	199.55	3
0	275274	199.55	3
0	275275	199.55	3
0	275308	199.6	3
0	275309	199.6	3
0	275310	199.6	3
0	275311	199.6	3
0	275312	199.6	3
0	275313	199.6	3
0	275314	199.6	3
0	275315	199.6	3
0	275356	199.65	3
0	275357	199.65	3
0	275358	199.65	3
0	275359	199.65	3
0	275596	199.7	3
0	275597	199.7	3
0	275598	199.7	3
0	275599	199.7	3
0	275600	199.7	3
0	275601	199.7	3
0	275602	199.7	3
0	275603	199.7	3
0	275716	199.75	3
0	275717	199.75	3
0	275718	199.75	3
0	275719	199.75	3
0	275752	199.8	3
0	275753	199.8	3
0	275754	199.8	3
0	275755	199.8	3
0	275756	199.8	3
0	275757	199.8	3
0	275758	199.8	3
0	275759	199.8	3
0	275800	199.85	3
0	275801	199.85	3
0	275802	199.85	3
0	275803	199.85	3
0	275836	199.9	3
0	275837	199.9	3
0	275838	199.9	3
0	275839	199.9	3
0	275840	199.9	3
0	275841	199.9	3
0	275842	199.9	3
0	275843	199.9	3
0	275884	199.95	3
0	275885	199.95	3
0	275886	199.95	3
0	275887	199.95	3
0	275923	200	3
0	275924	200	3
0	275925	200	3
0	275926	200	3
0	275927	200	3
0	275928	200	3
0	275929	200	3
0	275930	200	3

