version 2
run A-0-20190910-23:33:25-7919
attr configname A
attr datetime 20190910-23:33:25
attr experiment A
attr inifile SimV2.ini
attr iterationvars ""
attr iterationvarsf ""
attr measurement ""
attr network NetworkTormV2
attr processid 7919
attr repetition 0
attr replication #0
attr resultdir results
attr runnumber 0
attr seedset 0
param **.mobility.traceFile "\"paths/A.movements\""
param **.numNodes 3
param **.wirelessIfc.wirelessRange 25m
param **.bluetoothIfc.wirelessRange 25m
param **.numNodes 2
param **.application.usedRNG 1
param **.application.dataGenerationInterval 1ms
param **.application.dataSizeInBytes 10
param **.application.ttl 999999s
param **application.destinationAddr "\"Wf:00:00:00:00:02\""
param **application.destinationBTAddr "\"Bt:00:00:00:00:02\""
param **application.nodesThatGen true
param **application.nodesGenMsg "\"0\""
param **application.startMultipleMsg true
param **application.numMultipleMsg 100
param **application.hopsListSize 50
param **.routingLayer "\"RoutingLayer\""
param **.routing.maximumCacheSize 5000byte
param **.routing.maximumHopCount 25
param **.routing.useTTL false
param **.routing.waitBFsend 0.5
param **.neighboring.antiEntropyInterval 500ms
param **.neighboring.maximumRandomBackoffDuration 1s
param **.neighboring.delayPerDataMsg 0.1
param **neighboring.usedRNG 2
param **.neighboring.GWAddr "\"02:00:00:00:00:09\""
param **.neighboring.sendWifiFirst true
param **.neighboring.maxLengthGraph 20
param **.wirelessIfc.wirelessRange 15m
param **.wirelessIfc.neighbourScanInterval 50ms
param **.wirelessIfc.bandwidthBitRate 100000bps
param **.wirelessIfc.wirelessHeaderSize 32byte
param **.wirelessIfc.minSSI -90
param **.bluetoothIfc.wirelessRange 15m
param **.bluetoothIfc.neighbourScanInterval 100ms
param **.bluetoothIfc.bandwidthBitRate 100000bps
param **.bluetoothIfc.wirelessHeaderSize 16byte
param **.bluetoothIfc.minSSI -90
param **.mobilityType "\"BonnMotionMobility\""
param **.mobility.traceFile "\"paths/Moves2.movements\""
param **.mobility.nodeId -1

vector 0 NetworkTormV2 neighbourhoodSize:vector ETV
attr source neighbourhoodSize
vector 1 NetworkTormV2 deliveryRatio:vector ETV
attr source sum(totalDataBytesReceived)/sum(totalDataBytesReceivableByAllNodes)
vector 2 NetworkTormV2 dataBytesReceivedSum:vector ETV
attr source sum(dataBytesReceived)
vector 3 NetworkTormV2 totalBytesReceivedSum:vector ETV
attr source sum(totalBytesReceived)
0	10	0.05	1
0	11	0.05	2
0	12	0.05	1
0	20	0.1	1
0	21	0.1	2
0	22	0.1	1
0	23	0.1	1
0	24	0.1	2
0	25	0.1	1
0	137	0.15	1
0	138	0.15	2
0	139	0.15	1
0	246	0.2	1
0	247	0.2	2
0	248	0.2	1
0	249	0.2	1
0	250	0.2	2
0	251	0.2	1
0	264	0.25	1
0	265	0.25	2
0	266	0.25	1
0	273	0.3	1
0	274	0.3	2
0	275	0.3	1
0	276	0.3	1
0	277	0.3	2
0	278	0.3	1
0	291	0.35	1
0	292	0.35	2
0	293	0.35	1
0	300	0.4	1
0	301	0.4	2
0	302	0.4	1
0	303	0.4	1
0	304	0.4	2
0	305	0.4	1
0	318	0.45	1
0	319	0.45	2
0	320	0.45	1
0	327	0.5	1
0	328	0.5	2
0	329	0.5	1
0	330	0.5	1
0	331	0.5	2
0	332	0.5	1
0	345	0.55	1
0	346	0.55	2
0	347	0.55	1
0	354	0.6	1
0	355	0.6	2
0	356	0.6	1
0	357	0.6	1
0	358	0.6	2
0	359	0.6	1
0	372	0.65	1
0	373	0.65	2
0	374	0.65	1
0	381	0.7	1
0	382	0.7	2
0	383	0.7	1
0	384	0.7	1
0	385	0.7	2
0	386	0.7	1
0	399	0.75	1
0	400	0.75	2
0	401	0.75	1
0	408	0.8	1
0	409	0.8	2
0	410	0.8	1
0	411	0.8	1
0	412	0.8	2
0	413	0.8	1
0	426	0.85	1
0	427	0.85	2
0	428	0.85	1
0	435	0.9	1
0	436	0.9	2
0	437	0.9	1
0	438	0.9	1
0	439	0.9	2
0	440	0.9	1
0	453	0.95	1
0	454	0.95	2
0	455	0.95	1
0	462	1	1
0	463	1	2
0	464	1	1
0	465	1	1
0	466	1	2
0	467	1	1
0	480	1.05	1
0	481	1.05	2
0	482	1.05	1
0	489	1.1	1
0	490	1.1	2
0	491	1.1	1
0	492	1.1	1
0	493	1.1	2
0	494	1.1	1
0	559	1.15	1
0	560	1.15	2
0	561	1.15	1
0	568	1.2	1
0	569	1.2	2
0	570	1.2	1
0	571	1.2	1
0	572	1.2	2
0	573	1.2	1
0	586	1.25	1
0	587	1.25	2
0	588	1.25	1
0	595	1.3	1
0	596	1.3	2
0	597	1.3	1
0	598	1.3	1
0	599	1.3	2
0	600	1.3	1
0	613	1.35	1
0	614	1.35	2
0	615	1.35	1
0	622	1.4	1
0	623	1.4	2
0	624	1.4	1
0	625	1.4	1
0	626	1.4	2
0	627	1.4	1
0	640	1.45	1
0	641	1.45	2
0	642	1.45	1
0	649	1.5	1
0	650	1.5	2
0	651	1.5	1
0	652	1.5	1
0	653	1.5	2
0	654	1.5	1
0	667	1.55	1
0	668	1.55	2
0	669	1.55	1
0	676	1.6	1
0	677	1.6	2
0	678	1.6	1
0	679	1.6	1
0	680	1.6	2
0	681	1.6	1
0	694	1.65	1
0	695	1.65	2
0	696	1.65	1
0	965	1.7	1
0	966	1.7	2
0	967	1.7	1
0	968	1.7	1
0	969	1.7	2
0	970	1.7	1
0	1023	1.75	1
0	1024	1.75	2
0	1025	1.75	1
0	1068	1.8	1
0	1069	1.8	2
0	1070	1.8	1
0	1071	1.8	1
0	1072	1.8	2
0	1073	1.8	1
0	1120	1.85	1
0	1121	1.85	2
0	1122	1.85	1
0	1169	1.9	1
0	1170	1.9	2
0	1171	1.9	1
0	1172	1.9	1
0	1173	1.9	2
0	1174	1.9	1
0	1217	1.95	1
0	1218	1.95	2
0	1219	1.95	1
0	1266	2	1
0	1267	2	2
0	1268	2	1
0	1269	2	1
0	1270	2	2
0	1271	2	1
0	1320	2.05	1
0	1321	2.05	2
0	1322	2.05	1
0	1363	2.1	1
0	1364	2.1	2
0	1365	2.1	1
0	1366	2.1	1
0	1367	2.1	2
0	1368	2.1	1
0	1421	2.15	1
0	1422	2.15	2
0	1423	2.15	1
0	1466	2.2	1
0	1467	2.2	2
0	1468	2.2	1
0	1469	2.2	1
0	1470	2.2	2
0	1471	2.2	1
0	1555	2.25	1
0	1556	2.25	2
0	1557	2.25	1
0	1604	2.3	1
0	1605	2.3	2
0	1606	2.3	1
0	1607	2.3	1
0	1608	2.3	2
0	1609	2.3	1
0	1652	2.35	1
0	1653	2.35	2
0	1654	2.35	1
0	1701	2.4	1
0	1702	2.4	2
0	1703	2.4	1
0	1704	2.4	1
0	1705	2.4	2
0	1706	2.4	1
0	1755	2.45	1
0	1756	2.45	2
0	1757	2.45	1
0	1798	2.5	1
0	1799	2.5	2
0	1800	2.5	1
0	1801	2.5	1
0	1802	2.5	2
0	1803	2.5	1
0	1856	2.55	1
0	1857	2.55	2
0	1858	2.55	1
0	1895	2.6	1
0	1896	2.6	2
0	1897	2.6	1
0	1898	2.6	1
0	1899	2.6	2
0	1900	2.6	1
0	1953	2.65	1
0	1954	2.65	2
0	1955	2.65	1
0	1998	2.7	1
0	1999	2.7	2
0	2000	2.7	1
0	2001	2.7	1
0	2002	2.7	2
0	2003	2.7	1
0	2050	2.75	1
0	2051	2.75	2
0	2052	2.75	1
0	2127	2.8	1
0	2128	2.8	2
0	2129	2.8	1
0	2130	2.8	1
0	2131	2.8	2
0	2132	2.8	1
0	2175	2.85	1
0	2176	2.85	2
0	2177	2.85	1
0	2224	2.9	1
0	2225	2.9	2
0	2226	2.9	1
0	2227	2.9	1
0	2228	2.9	2
0	2229	2.9	1
0	2282	2.95	1
0	2283	2.95	2
0	2284	2.95	1
0	2321	3	1
0	2322	3	2
0	2323	3	1
0	2324	3	1
0	2325	3	2
0	2326	3	1
0	2379	3.05	1
0	2380	3.05	2
0	2381	3.05	1
0	2424	3.1	1
0	2425	3.1	2
0	2426	3.1	1
0	2427	3.1	1
0	2428	3.1	2
0	2429	3.1	1
0	2442	3.15	1
0	2443	3.15	2
0	2444	3.15	1
0	2451	3.2	1
0	2452	3.2	2
0	2453	3.2	1
0	2454	3.2	1
0	2455	3.2	2
0	2456	3.2	1
0	2482	3.25	1
0	2483	3.25	2
0	2484	3.25	1
0	2491	3.3	1
0	2492	3.3	2
0	2493	3.3	1
0	2494	3.3	1
0	2495	3.3	2
0	2496	3.3	1
0	2535	3.35	1
0	2536	3.35	2
0	2537	3.35	1
0	2557	3.4	1
0	2558	3.4	2
0	2559	3.4	1
0	2560	3.4	1
0	2561	3.4	2
0	2562	3.4	1
0	2575	3.45	1
0	2576	3.45	2
0	2577	3.45	1
0	2584	3.5	1
0	2585	3.5	2
0	2586	3.5	1
0	2587	3.5	1
0	2588	3.5	2
0	2589	3.5	1
0	2602	3.55	1
0	2603	3.55	2
0	2604	3.55	1
0	2611	3.6	1
0	2612	3.6	2
0	2613	3.6	1
0	2614	3.6	1
0	2615	3.6	2
0	2616	3.6	1
0	2629	3.65	1
0	2630	3.65	2
0	2631	3.65	1
0	2638	3.7	1
0	2639	3.7	2
0	2640	3.7	1
0	2641	3.7	1
0	2642	3.7	2
0	2643	3.7	1
0	2656	3.75	1
0	2657	3.75	2
0	2658	3.75	1
0	2678	3.8	1
0	2679	3.8	2
0	2680	3.8	1
0	2681	3.8	1
0	2682	3.8	2
0	2683	3.8	1
0	2696	3.85	1
0	2697	3.85	2
0	2698	3.85	1
0	2951	3.9	1
0	2952	3.9	2
0	2953	3.9	1
0	2954	3.9	1
0	2955	3.9	2
0	2956	3.9	1
0	3018	3.95	1
0	3019	3.95	2
0	3020	3.95	1
0	3057	4	1
0	3058	4	2
0	3059	4	1
0	3060	4	1
0	3061	4	2
0	3062	4	1
0	3115	4.05	1
0	3116	4.05	2
0	3117	4.05	1
0	3160	4.1	1
0	3161	4.1	2
0	3162	4.1	1
0	3163	4.1	1
0	3164	4.1	2
0	3165	4.1	1
0	3212	4.15	1
0	3213	4.15	2
0	3214	4.15	1
0	3261	4.2	1
0	3262	4.2	2
0	3263	4.2	1
0	3264	4.2	1
0	3265	4.2	2
0	3266	4.2	1
0	3309	4.25	1
0	3310	4.25	2
0	3311	4.25	1
0	3358	4.3	1
0	3359	4.3	2
0	3360	4.3	1
0	3361	4.3	1
0	3362	4.3	2
0	3363	4.3	1
0	3414	4.35	1
0	3415	4.35	2
0	3416	4.35	1
0	3457	4.4	1
0	3458	4.4	2
0	3459	4.4	1
0	3460	4.4	1
0	3461	4.4	2
0	3462	4.4	1
0	3526	4.45	1
0	3527	4.45	2
0	3528	4.45	1
0	3565	4.5	1
0	3566	4.5	2
0	3567	4.5	1
0	3568	4.5	1
0	3569	4.5	2
0	3570	4.5	1
0	3623	4.55	1
0	3624	4.55	2
0	3625	4.55	1
0	3668	4.6	1
0	3669	4.6	2
0	3670	4.6	1
0	3671	4.6	1
0	3672	4.6	2
0	3673	4.6	1
0	3720	4.65	1
0	3721	4.65	2
0	3722	4.65	1
0	3769	4.7	1
0	3770	4.7	2
0	3771	4.7	1
0	3772	4.7	1
0	3773	4.7	2
0	3774	4.7	1
0	3817	4.75	1
0	3818	4.75	2
0	3819	4.75	1
0	3866	4.8	1
0	3867	4.8	2
0	3868	4.8	1
0	3869	4.8	1
0	3870	4.8	2
0	3871	4.8	1
0	3924	4.85	1
0	3925	4.85	2
0	3926	4.85	1
0	3963	4.9	1
0	3964	4.9	2
0	3965	4.9	1
0	3966	4.9	1
0	3967	4.9	2
0	3968	4.9	1
0	4021	4.95	1
0	4022	4.95	2
0	4023	4.95	1
0	4068	5	1
0	4069	5	2
0	4070	5	1
0	4071	5	1
0	4072	5	2
0	4073	5	1
0	4120	5.05	1
0	4121	5.05	2
0	4122	5.05	1
0	4169	5.1	1
0	4170	5.1	2
0	4171	5.1	1
0	4172	5.1	1
0	4173	5.1	2
0	4174	5.1	1
0	4217	5.15	1
0	4218	5.15	2
0	4219	5.15	1
0	4266	5.2	1
0	4267	5.2	2
0	4268	5.2	1
0	4269	5.2	1
0	4270	5.2	2
0	4271	5.2	1
0	4320	5.25	1
0	4321	5.25	2
0	4322	5.25	1
0	4374	5.3	1
0	4375	5.3	2
0	4376	5.3	1
0	4377	5.3	1
0	4378	5.3	2
0	4379	5.3	1
0	4392	5.35	1
0	4393	5.35	2
0	4394	5.35	1
0	4401	5.4	1
0	4402	5.4	2
0	4403	5.4	1
0	4404	5.4	1
0	4405	5.4	2
0	4406	5.4	1
0	4445	5.45	1
0	4446	5.45	2
0	4447	5.45	1
0	4454	5.5	1
0	4455	5.5	2
0	4456	5.5	1
0	4457	5.5	1
0	4458	5.5	2
0	4459	5.5	1
0	4472	5.55	1
0	4473	5.55	2
0	4474	5.55	1
0	4507	5.6	1
0	4508	5.6	2
0	4509	5.6	1
0	4510	5.6	1
0	4511	5.6	2
0	4512	5.6	1
0	4525	5.65	1
0	4526	5.65	2
0	4527	5.65	1
0	4534	5.7	1
0	4535	5.7	2
0	4536	5.7	1
0	4537	5.7	1
0	4538	5.7	2
0	4539	5.7	1
0	4552	5.75	1
0	4553	5.75	2
0	4554	5.75	1
0	4561	5.8	1
0	4562	5.8	2
0	4563	5.8	1
0	4564	5.8	1
0	4565	5.8	2
0	4566	5.8	1
0	4579	5.85	1
0	4580	5.85	2
0	4581	5.85	1
0	4588	5.9	1
0	4589	5.9	2
0	4590	5.9	1
0	4591	5.9	1
0	4592	5.9	2
0	4593	5.9	1
0	4606	5.95	1
0	4607	5.95	2
0	4608	5.95	1
0	4641	6	1
0	4642	6	2
0	4643	6	1
0	4644	6	1
0	4645	6	2
0	4646	6	1
0	4659	6.05	1
0	4660	6.05	2
0	4661	6.05	1
0	4668	6.1	1
0	4669	6.1	2
0	4670	6.1	1
0	4671	6.1	1
0	4672	6.1	2
0	4673	6.1	1
0	4712	6.15	1
0	4713	6.15	2
0	4714	6.15	1
0	4721	6.2	1
0	4722	6.2	2
0	4723	6.2	1
0	4724	6.2	1
0	4725	6.2	2
0	4726	6.2	1
0	4739	6.25	1
0	4740	6.25	2
0	4741	6.25	1
0	4748	6.3	1
0	4749	6.3	2
0	4750	6.3	1
0	4751	6.3	1
0	4752	6.3	2
0	4753	6.3	1
0	4766	6.35	1
0	4767	6.35	2
0	4768	6.35	1
0	4775	6.4	1
0	4776	6.4	2
0	4777	6.4	1
0	4778	6.4	1
0	4779	6.4	2
0	4780	6.4	1
0	4793	6.45	1
0	4794	6.45	2
0	4795	6.45	1
0	4802	6.5	1
0	4803	6.5	2
0	4804	6.5	1
0	4805	6.5	1
0	4806	6.5	2
0	4807	6.5	1
0	4846	6.55	1
0	4847	6.55	2
0	4848	6.55	1
0	4855	6.6	1
0	4856	6.6	2
0	4857	6.6	1
0	4858	6.6	1
0	4859	6.6	2
0	4860	6.6	1
0	4873	6.65	1
0	4874	6.65	2
0	4875	6.65	1
0	4908	6.7	1
0	4909	6.7	2
0	4910	6.7	1
0	4911	6.7	1
0	4912	6.7	2
0	4913	6.7	1
0	4926	6.75	1
0	4927	6.75	2
0	4928	6.75	1
0	4935	6.8	1
0	4936	6.8	2
0	4937	6.8	1
0	4938	6.8	1
0	4939	6.8	2
0	4940	6.8	1
0	4953	6.85	1
0	4954	6.85	2
0	4955	6.85	1
0	4962	6.9	1
0	4963	6.9	2
0	4964	6.9	1
0	4965	6.9	1
0	4966	6.9	2
0	4967	6.9	1
0	4980	6.95	1
0	4981	6.95	2
0	4982	6.95	1
0	4989	7	1
0	4990	7	2
0	4991	7	1
0	4992	7	1
0	4993	7	2
0	4994	7	1
0	5007	7.05	1
0	5008	7.05	2
0	5009	7.05	1
0	5042	7.1	1
0	5043	7.1	2
0	5044	7.1	1
0	5045	7.1	1
0	5046	7.1	2
0	5047	7.1	1
0	5060	7.15	1
0	5061	7.15	2
0	5062	7.15	1
0	5069	7.2	1
0	5070	7.2	2
0	5071	7.2	1
0	5072	7.2	1
0	5073	7.2	2
0	5074	7.2	1
0	5113	7.25	1
0	5114	7.25	2
0	5115	7.25	1
0	5122	7.3	1
0	5123	7.3	2
0	5124	7.3	1
0	5125	7.3	1
0	5126	7.3	2
0	5127	7.3	1
0	5140	7.35	1
0	5141	7.35	2
0	5142	7.35	1
0	5149	7.4	1
0	5150	7.4	2
0	5151	7.4	1
0	5152	7.4	1
0	5153	7.4	2
0	5154	7.4	1
0	5167	7.45	1
0	5168	7.45	2
0	5169	7.45	1
0	5176	7.5	1
0	5177	7.5	2
0	5178	7.5	1
0	5179	7.5	1
0	5180	7.5	2
0	5181	7.5	1
0	5194	7.55	1
0	5195	7.55	2
0	5196	7.55	1
0	5203	7.6	1
0	5204	7.6	2
0	5205	7.6	1
0	5206	7.6	1
0	5207	7.6	2
0	5208	7.6	1
0	5247	7.65	1
0	5248	7.65	2
0	5249	7.65	1
0	5256	7.7	1
0	5257	7.7	2
0	5258	7.7	1
0	5259	7.7	1
0	5260	7.7	2
0	5261	7.7	1
0	5274	7.75	1
0	5275	7.75	2
0	5276	7.75	1
0	5309	7.8	1
0	5310	7.8	2
0	5311	7.8	1
0	5312	7.8	1
0	5313	7.8	2
0	5314	7.8	1
0	5327	7.85	1
0	5328	7.85	2
0	5329	7.85	1
0	5336	7.9	1
0	5337	7.9	2
0	5338	7.9	1
0	5339	7.9	1
0	5340	7.9	2
0	5341	7.9	1
0	5354	7.95	1
0	5355	7.95	2
0	5356	7.95	1
0	5363	8	1
0	5364	8	2
0	5365	8	1
0	5366	8	1
0	5367	8	2
0	5368	8	1
0	5381	8.05	1
0	5382	8.05	2
0	5383	8.05	1
0	5390	8.1	1
0	5391	8.1	2
0	5392	8.1	1
0	5393	8.1	1
0	5394	8.1	2
0	5395	8.1	1
0	5408	8.15	1
0	5409	8.15	2
0	5410	8.15	1
0	5443	8.2	1
0	5444	8.2	2
0	5445	8.2	1
0	5446	8.2	1
0	5447	8.2	2
0	5448	8.2	1
0	5461	8.25	1
0	5462	8.25	2
0	5463	8.25	1
0	5470	8.3	1
0	5471	8.3	2
0	5472	8.3	1
0	5473	8.3	1
0	5474	8.3	2
0	5475	8.3	1
0	5514	8.35	1
0	5515	8.35	2
0	5516	8.35	1
0	5523	8.4	1
0	5524	8.4	2
0	5525	8.4	1
0	5526	8.4	1
0	5527	8.4	2
0	5528	8.4	1
0	5541	8.45	1
0	5542	8.45	2
0	5543	8.45	1
0	5550	8.5	1
0	5551	8.5	2
0	5552	8.5	1
0	5553	8.5	1
0	5554	8.5	2
0	5555	8.5	1
0	5568	8.55	1
0	5569	8.55	2
0	5570	8.55	1
0	5577	8.6	1
0	5578	8.6	2
0	5579	8.6	1
0	5580	8.6	1
0	5581	8.6	2
0	5582	8.6	1
0	5595	8.65	1
0	5596	8.65	2
0	5597	8.65	1
0	5604	8.7	1
0	5605	8.7	2
0	5606	8.7	1
0	5607	8.7	1
0	5608	8.7	2
0	5609	8.7	1
0	5648	8.75	1
0	5649	8.75	2
0	5650	8.75	1
0	5657	8.8	1
0	5658	8.8	2
0	5659	8.8	1
0	5660	8.8	1
0	5661	8.8	2
0	5662	8.8	1
0	5675	8.85	1
0	5676	8.85	2
0	5677	8.85	1
0	5710	8.9	1
0	5711	8.9	2
0	5712	8.9	1
0	5713	8.9	1
0	5714	8.9	2
0	5715	8.9	1
0	5728	8.95	1
0	5729	8.95	2
0	5730	8.95	1
0	5737	9	1
0	5738	9	2
0	5739	9	1
0	5740	9	1
0	5741	9	2
0	5742	9	1
0	5755	9.05	1
0	5756	9.05	2
0	5757	9.05	1
0	5764	9.1	1
0	5765	9.1	2
0	5766	9.1	1
0	5767	9.1	1
0	5768	9.1	2
0	5769	9.1	1
0	5782	9.15	1
0	5783	9.15	2
0	5784	9.15	1
0	5791	9.2	1
0	5792	9.2	2
0	5793	9.2	1
0	5794	9.2	1
0	5795	9.2	2
0	5796	9.2	1
0	5809	9.25	1
0	5810	9.25	2
0	5811	9.25	1
0	5844	9.3	1
0	5845	9.3	2
0	5846	9.3	1
0	5847	9.3	1
0	5848	9.3	2
0	5849	9.3	1
0	5862	9.35	1
0	5863	9.35	2
0	5864	9.35	1
0	5871	9.4	1
0	5872	9.4	2
0	5873	9.4	1
0	5874	9.4	1
0	5875	9.4	2
0	5876	9.4	1
0	5915	9.45	1
0	5916	9.45	2
0	5917	9.45	1
0	5924	9.5	1
0	5925	9.5	2
0	5926	9.5	1
0	5927	9.5	1
0	5928	9.5	2
0	5929	9.5	1
0	5942	9.55	1
0	5943	9.55	2
0	5944	9.55	1
0	5951	9.6	1
0	5952	9.6	2
0	5953	9.6	1
0	5954	9.6	1
0	5955	9.6	2
0	5956	9.6	1
0	5969	9.65	1
0	5970	9.65	2
0	5971	9.65	1
0	5978	9.7	1
0	5979	9.7	2
0	5980	9.7	1
0	5981	9.7	1
0	5982	9.7	2
0	5983	9.7	1
0	5996	9.75	1
0	5997	9.75	2
0	5998	9.75	1
0	6005	9.8	1
0	6006	9.8	2
0	6007	9.8	1
0	6008	9.8	1
0	6009	9.8	2
0	6010	9.8	1
0	6049	9.85	1
0	6050	9.85	2
0	6051	9.85	1
0	6058	9.9	1
0	6059	9.9	2
0	6060	9.9	1
0	6061	9.9	1
0	6062	9.9	2
0	6063	9.9	1
0	6076	9.95	1
0	6077	9.95	2
0	6078	9.95	1
0	6111	10	1
0	6112	10	2
0	6113	10	1
0	6114	10	1
0	6115	10	2
0	6116	10	1
1	19	0.1	-nan
1	39	0.101	-nan
1	41	0.102	-nan
1	43	0.103	-nan
1	45	0.104	-nan
1	47	0.105	-nan
1	49	0.106	-nan
1	51	0.107	-nan
1	53	0.108	-nan
1	55	0.109	-nan
1	57	0.11	-nan
1	59	0.111	-nan
1	61	0.112	-nan
1	63	0.113	-nan
1	65	0.114	-nan
1	67	0.115	-nan
1	69	0.116	-nan
1	71	0.117	-nan
1	73	0.118	-nan
1	75	0.119	-nan
1	77	0.12	-nan
1	79	0.121	-nan
1	81	0.122	-nan
1	83	0.123	-nan
1	85	0.124	-nan
1	87	0.125	-nan
1	89	0.126	-nan
1	91	0.127	-nan
1	93	0.128	-nan
1	95	0.129	-nan
1	97	0.13	-nan
1	99	0.131	-nan
1	101	0.132	-nan
1	103	0.133	-nan
1	105	0.134	-nan
1	107	0.135	-nan
1	109	0.136	-nan
1	111	0.137	-nan
1	113	0.138	-nan
1	115	0.139	-nan
1	117	0.14	-nan
1	119	0.141	-nan
1	121	0.142	-nan
1	123	0.143	-nan
1	125	0.144	-nan
1	127	0.145	-nan
1	129	0.146	-nan
1	131	0.147	-nan
1	133	0.148	-nan
1	135	0.149	-nan
1	140	0.15	-nan
1	148	0.151	-nan
1	150	0.152	-nan
1	152	0.153	-nan
1	154	0.154	-nan
1	156	0.155	-nan
1	158	0.156	-nan
1	160	0.157	-nan
1	162	0.158	-nan
1	164	0.159	-nan
1	166	0.16	-nan
1	168	0.161	-nan
1	170	0.162	-nan
1	172	0.163	-nan
1	174	0.164	-nan
1	176	0.165	-nan
1	178	0.166	-nan
1	180	0.167	-nan
1	182	0.168	-nan
1	184	0.169	-nan
1	186	0.17	-nan
1	188	0.171	-nan
1	190	0.172	-nan
1	192	0.173	-nan
1	194	0.174	-nan
1	196	0.175	-nan
1	198	0.176	-nan
1	200	0.177	-nan
1	202	0.178	-nan
1	204	0.179	-nan
1	206	0.18	-nan
1	208	0.181	-nan
1	210	0.182	-nan
1	212	0.183	-nan
1	214	0.184	-nan
1	216	0.185	-nan
1	218	0.186	-nan
1	220	0.187	-nan
1	222	0.188	-nan
1	224	0.189	-nan
1	226	0.19	-nan
1	228	0.191	-nan
1	230	0.192	-nan
1	232	0.193	-nan
1	234	0.194	-nan
1	236	0.195	-nan
1	238	0.196	-nan
1	240	0.197	-nan
1	242	0.198	-nan
1	244	0.199	-nan
2	958	1.687868379119	141
2	986	1.701708379119	282
2	996	1.715548379119	423
2	1006	1.729388379119	564
2	1016	1.743228379119	705
2	1035	1.757068379119	846
2	1045	1.770908379119	987
2	1055	1.784748379119	1128
2	1065	1.798588379119	1269
2	1093	1.812428379119	1410
2	1103	1.826268379119	1551
2	1113	1.840108379119	1692
2	1132	1.853948379119	1833
2	1142	1.867788379119	1974
2	1152	1.881628379119	2115
2	1162	1.895468379119	2256
2	1190	1.909308379119	2397
2	1200	1.923148379119	2538
2	1210	1.936988379119	2679
2	1229	1.950828379119	2820
2	1239	1.964668379119	2961
2	1249	1.978508379119	3102
2	1259	1.992348379119	3243
2	1287	2.006188379119	3384
2	1297	2.020028379119	3525
2	1307	2.033868379119	3666
2	1317	2.047708379119	3807
2	1336	2.061548379119	3948
2	1346	2.075388379119	4089
2	1356	2.089228379119	4230
2	1384	2.103068379119	4371
2	1394	2.116908379119	4512
2	1404	2.130748379119	4653
2	1414	2.144588379119	4794
2	1433	2.158428379119	4935
2	1443	2.172268379119	5076
2	1453	2.186108379119	5217
2	1463	2.199948379119	5358
2	1513	2.213788379119	5499
2	1534	2.227628379119	5640
2	1548	2.241468379119	5781
2	1567	2.255308379119	5922
2	1577	2.269148379119	6063
2	1587	2.282988379119	6204
2	1597	2.296828379119	6345
2	1625	2.310668379119	6486
2	1635	2.324508379119	6627
2	1645	2.338348379119	6768
2	1664	2.352188379119	6909
2	1674	2.366028379119	7050
2	1684	2.379868379119	7191
2	1694	2.393708379119	7332
2	1722	2.407548379119	7473
2	1732	2.421388379119	7614
2	1742	2.435228379119	7755
2	1752	2.449068379119	7896
2	1771	2.462908379119	8037
2	1781	2.476748379119	8178
2	1791	2.490588379119	8319
2	1819	2.504428379119	8460
2	1829	2.518268379119	8601
2	1839	2.532108379119	8742
2	1849	2.545948379119	8883
2	1868	2.559788379119	9024
2	1878	2.573628379119	9165
2	1888	2.587468379119	9306
2	1916	2.601308379119	9447
2	1926	2.615148379119	9588
2	1936	2.628988379119	9729
2	1946	2.642828379119	9870
2	1965	2.656668379119	10011
2	1975	2.670508379119	10152
2	1985	2.684348379119	10293
2	1995	2.698188379119	10434
2	2023	2.712028379119	10575
2	2033	2.725868379119	10716
2	2043	2.739708379119	10857
2	2068	2.753548379119	10998
2	2100	2.767388379119	11139
2	2110	2.781228379119	11280
2	2120	2.795068379119	11421
2	2148	2.808908379119	11562
2	2158	2.822748379119	11703
2	2168	2.836588379119	11844
2	2187	2.850428379119	11985
2	2197	2.864268379119	12126
2	2207	2.878108379119	12267
2	2217	2.891948379119	12408
2	2245	2.905788379119	12549
2	2255	2.919628379119	12690
2	2265	2.933468379119	12831
2	2275	2.947308379119	12972
2	2294	2.961148379119	13113
2	2304	2.974988379119	13254
2	2314	2.988828379119	13395
2	2342	3.002668379119	13536
2	2352	3.016508379119	13677
2	2362	3.030348379119	13818
2	2372	3.044188379119	13959
2	2391	3.058028379119	14100
2	2934	3.878203244372	14241
2	2944	3.892043244372	14382
2	2974	3.905883244372	14523
2	2991	3.919723244372	14664
2	3001	3.933563244372	14805
2	3011	3.947403244372	14946
2	3030	3.961243244372	15087
2	3040	3.975083244372	15228
2	3050	3.988923244372	15369
2	3078	4.002763244372	15510
2	3088	4.016603244372	15651
2	3098	4.030443244372	15792
2	3108	4.044283244372	15933
2	3127	4.058123244372	16074
2	3137	4.071963244372	16215
2	3147	4.085803244372	16356
2	3157	4.099643244372	16497
2	3185	4.113483244372	16638
2	3195	4.127323244372	16779
2	3205	4.141163244372	16920
2	3224	4.155003244372	17061
2	3234	4.168843244372	17202
2	3244	4.182683244372	17343
2	3254	4.196523244372	17484
2	3282	4.210363244372	17625
2	3292	4.224203244372	17766
2	3302	4.238043244372	17907
2	3321	4.251883244372	18048
2	3331	4.265723244372	18189
2	3341	4.279563244372	18330
2	3351	4.293403244372	18471
2	3381	4.307243244372	18612
2	3391	4.321083244372	18753
2	3401	4.334923244372	18894
2	3411	4.348763244372	19035
2	3430	4.362603244372	19176
2	3440	4.376443244372	19317
2	3450	4.390283244372	19458
2	3482	4.404123244372	19599
2	3499	4.417963244372	19740
2	3509	4.431803244372	19881
2	3519	4.445643244372	20022
2	3538	4.459483244372	20163
2	3548	4.473323244372	20304
2	3558	4.487163244372	20445
2	3586	4.501003244372	20586
2	3596	4.514843244372	20727
2	3606	4.528683244372	20868
2	3616	4.542523244372	21009
2	3635	4.556363244372	21150
2	3645	4.570203244372	21291
2	3655	4.584043244372	21432
2	3665	4.597883244372	21573
2	3693	4.611723244372	21714
2	3703	4.625563244372	21855
2	3713	4.639403244372	21996
2	3732	4.653243244372	22137
2	3742	4.667083244372	22278
2	3752	4.680923244372	22419
2	3762	4.694763244372	22560
2	3790	4.708603244372	22701
2	3800	4.722443244372	22842
2	3810	4.736283244372	22983
2	3829	4.750123244372	23124
2	3839	4.763963244372	23265
2	3849	4.777803244372	23406
2	3859	4.791643244372	23547
2	3887	4.805483244372	23688
2	3897	4.819323244372	23829
2	3907	4.833163244372	23970
2	3917	4.847003244372	24111
2	3936	4.860843244372	24252
2	3946	4.874683244372	24393
2	3956	4.888523244372	24534
2	3984	4.902363244372	24675
2	3994	4.916203244372	24816
2	4004	4.930043244372	24957
2	4014	4.943883244372	25098
2	4035	4.957723244372	25239
2	4045	4.971563244372	25380
2	4055	4.985403244372	25521
2	4065	4.999243244372	25662
2	4093	5.013083244372	25803
2	4103	5.026923244372	25944
2	4113	5.040763244372	26085
2	4132	5.054603244372	26226
2	4142	5.068443244372	26367
2	4152	5.082283244372	26508
2	4162	5.096123244372	26649
2	4190	5.109963244372	26790
2	4200	5.123803244372	26931
2	4210	5.137643244372	27072
2	4229	5.151483244372	27213
2	4239	5.165323244372	27354
2	4249	5.179163244372	27495
2	4259	5.193003244372	27636
2	4287	5.206843244372	27777
2	4297	5.220683244372	27918
2	4307	5.234523244372	28059
2	4317	5.248363244372	28200
3	958	1.687868379119	141
3	986	1.701708379119	282
3	996	1.715548379119	423
3	1006	1.729388379119	564
3	1016	1.743228379119	705
3	1035	1.757068379119	846
3	1045	1.770908379119	987
3	1055	1.784748379119	1128
3	1065	1.798588379119	1269
3	1093	1.812428379119	1410
3	1103	1.826268379119	1551
3	1113	1.840108379119	1692
3	1132	1.853948379119	1833
3	1142	1.867788379119	1974
3	1152	1.881628379119	2115
3	1162	1.895468379119	2256
3	1190	1.909308379119	2397
3	1200	1.923148379119	2538
3	1210	1.936988379119	2679
3	1229	1.950828379119	2820
3	1239	1.964668379119	2961
3	1249	1.978508379119	3102
3	1259	1.992348379119	3243
3	1287	2.006188379119	3384
3	1297	2.020028379119	3525
3	1307	2.033868379119	3666
3	1317	2.047708379119	3807
3	1336	2.061548379119	3948
3	1346	2.075388379119	4089
3	1356	2.089228379119	4230
3	1384	2.103068379119	4371
3	1394	2.116908379119	4512
3	1404	2.130748379119	4653
3	1414	2.144588379119	4794
3	1433	2.158428379119	4935
3	1443	2.172268379119	5076
3	1453	2.186108379119	5217
3	1463	2.199948379119	5358
3	1513	2.213788379119	5499
3	1534	2.227628379119	5640
3	1548	2.241468379119	5781
3	1567	2.255308379119	5922
3	1577	2.269148379119	6063
3	1587	2.282988379119	6204
3	1597	2.296828379119	6345
3	1625	2.310668379119	6486
3	1635	2.324508379119	6627
3	1645	2.338348379119	6768
3	1664	2.352188379119	6909
3	1674	2.366028379119	7050
3	1684	2.379868379119	7191
3	1694	2.393708379119	7332
3	1722	2.407548379119	7473
3	1732	2.421388379119	7614
3	1742	2.435228379119	7755
3	1752	2.449068379119	7896
3	1771	2.462908379119	8037
3	1781	2.476748379119	8178
3	1791	2.490588379119	8319
3	1819	2.504428379119	8460
3	1829	2.518268379119	8601
3	1839	2.532108379119	8742
3	1849	2.545948379119	8883
3	1868	2.559788379119	9024
3	1878	2.573628379119	9165
3	1888	2.587468379119	9306
3	1916	2.601308379119	9447
3	1926	2.615148379119	9588
3	1936	2.628988379119	9729
3	1946	2.642828379119	9870
3	1965	2.656668379119	10011
3	1975	2.670508379119	10152
3	1985	2.684348379119	10293
3	1995	2.698188379119	10434
3	2023	2.712028379119	10575
3	2033	2.725868379119	10716
3	2043	2.739708379119	10857
3	2068	2.753548379119	10998
3	2100	2.767388379119	11139
3	2110	2.781228379119	11280
3	2120	2.795068379119	11421
3	2148	2.808908379119	11562
3	2158	2.822748379119	11703
3	2168	2.836588379119	11844
3	2187	2.850428379119	11985
3	2197	2.864268379119	12126
3	2207	2.878108379119	12267
3	2217	2.891948379119	12408
3	2245	2.905788379119	12549
3	2255	2.919628379119	12690
3	2265	2.933468379119	12831
3	2275	2.947308379119	12972
3	2294	2.961148379119	13113
3	2304	2.974988379119	13254
3	2314	2.988828379119	13395
3	2342	3.002668379119	13536
3	2352	3.016508379119	13677
3	2362	3.030348379119	13818
3	2372	3.044188379119	13959
3	2391	3.058028379119	14100
3	2934	3.878203244372	14241
3	2944	3.892043244372	14382
3	2974	3.905883244372	14523
3	2991	3.919723244372	14664
3	3001	3.933563244372	14805
3	3011	3.947403244372	14946
3	3030	3.961243244372	15087
3	3040	3.975083244372	15228
3	3050	3.988923244372	15369
3	3078	4.002763244372	15510
3	3088	4.016603244372	15651
3	3098	4.030443244372	15792
3	3108	4.044283244372	15933
3	3127	4.058123244372	16074
3	3137	4.071963244372	16215
3	3147	4.085803244372	16356
3	3157	4.099643244372	16497
3	3185	4.113483244372	16638
3	3195	4.127323244372	16779
3	3205	4.141163244372	16920
3	3224	4.155003244372	17061
3	3234	4.168843244372	17202
3	3244	4.182683244372	17343
3	3254	4.196523244372	17484
3	3282	4.210363244372	17625
3	3292	4.224203244372	17766
3	3302	4.238043244372	17907
3	3321	4.251883244372	18048
3	3331	4.265723244372	18189
3	3341	4.279563244372	18330
3	3351	4.293403244372	18471
3	3381	4.307243244372	18612
3	3391	4.321083244372	18753
3	3401	4.334923244372	18894
3	3411	4.348763244372	19035
3	3430	4.362603244372	19176
3	3440	4.376443244372	19317
3	3450	4.390283244372	19458
3	3482	4.404123244372	19599
3	3499	4.417963244372	19740
3	3509	4.431803244372	19881
3	3519	4.445643244372	20022
3	3538	4.459483244372	20163
3	3548	4.473323244372	20304
3	3558	4.487163244372	20445
3	3586	4.501003244372	20586
3	3596	4.514843244372	20727
3	3606	4.528683244372	20868
3	3616	4.542523244372	21009
3	3635	4.556363244372	21150
3	3645	4.570203244372	21291
3	3655	4.584043244372	21432
3	3665	4.597883244372	21573
3	3693	4.611723244372	21714
3	3703	4.625563244372	21855
3	3713	4.639403244372	21996
3	3732	4.653243244372	22137
3	3742	4.667083244372	22278
3	3752	4.680923244372	22419
3	3762	4.694763244372	22560
3	3790	4.708603244372	22701
3	3800	4.722443244372	22842
3	3810	4.736283244372	22983
3	3829	4.750123244372	23124
3	3839	4.763963244372	23265
3	3849	4.777803244372	23406
3	3859	4.791643244372	23547
3	3887	4.805483244372	23688
3	3897	4.819323244372	23829
3	3907	4.833163244372	23970
3	3917	4.847003244372	24111
3	3936	4.860843244372	24252
3	3946	4.874683244372	24393
3	3956	4.888523244372	24534
3	3984	4.902363244372	24675
3	3994	4.916203244372	24816
3	4004	4.930043244372	24957
3	4014	4.943883244372	25098
3	4035	4.957723244372	25239
3	4045	4.971563244372	25380
3	4055	4.985403244372	25521
3	4065	4.999243244372	25662
3	4093	5.013083244372	25803
3	4103	5.026923244372	25944
3	4113	5.040763244372	26085
3	4132	5.054603244372	26226
3	4142	5.068443244372	26367
3	4152	5.082283244372	26508
3	4162	5.096123244372	26649
3	4190	5.109963244372	26790
3	4200	5.123803244372	26931
3	4210	5.137643244372	27072
3	4229	5.151483244372	27213
3	4239	5.165323244372	27354
3	4249	5.179163244372	27495
3	4259	5.193003244372	27636
3	4287	5.206843244372	27777
3	4297	5.220683244372	27918
3	4307	5.234523244372	28059
3	4317	5.248363244372	28200

