version 2
run A-0-20190827-20:26:05-9812
attr configname A
attr datetime 20190827-20:26:05
attr experiment A
attr inifile SimV2.ini
attr iterationvars $0=2
attr iterationvarsf 2-
attr measurement $0=2
attr network NetworkTormV2
attr processid 9812
attr repetition 0
attr replication #0
attr resultdir results
attr runnumber 0
attr seedset 0
param **.mobility.traceFile "\"paths/A.movements\""
param **.numNodes 2
param **.wirelessIfc.wirelessRange 25m
param **.bluetoothIfc.wirelessRange 25m
param **.numNodes 2
param **.application.usedRNG 1
param **.application.dataGenerationInterval 1ms
param **.application.dataSizeInBytes 10
param **.application.ttl 999999s
param **application.destinationAddr "\"Wf:00:00:00:00:02\""
param **application.destinationBTAddr "\"Bt:00:00:00:00:02\""
param **application.nodesThatGen true
param **application.nodesGenMsg "\"0\""
param **application.startMultipleMsg true
param **application.numMultipleMsg 100
param **.routingLayer "\"EpidemicRoutingLayer\""
param **.routing.maximumCacheSize 5000byte
param **.routing.maximumHopCount 25
param **.routing.useTTL false
param **.neighboring.antiEntropyInterval 200ms
param **.neighboring.maximumRandomBackoffDuration 1s
param **.neighboring.delayPerDataMsg 0.1
param **neighboring.usedRNG 2
param **.neighboring.GWAddr "\"02:00:00:00:00:03\""
param **.neighboring.sendWifiFirst true
param **.storage.maximumCacheSize 5000byte
param **.wirelessIfc.wirelessRange 15m
param **.wirelessIfc.neighbourScanInterval 50ms
param **.wirelessIfc.bandwidthBitRate 100000bps
param **.wirelessIfc.wirelessHeaderSize 32byte
param **.wirelessIfc.minSSI -90
param **.bluetoothIfc.wirelessRange 15m
param **.bluetoothIfc.neighbourScanInterval 100ms
param **.bluetoothIfc.bandwidthBitRate 100000bps
param **.bluetoothIfc.wirelessHeaderSize 16byte
param **.bluetoothIfc.minSSI -90
param **.mobilityType "\"BonnMotionMobility\""
param **.mobility.traceFile "\"paths/Moves2.movements\""
param **.mobility.nodeId -1

vector 0 NetworkTormV2 neighbourhoodSize:vector ETV
attr source neighbourhoodSize
vector 1 NetworkTormV2 deliveryRatio:vector ETV
attr source sum(totalDataBytesReceived)/sum(totalDataBytesReceivableByAllNodes)
vector 2 NetworkTormV2 dataBytesReceivedSum:vector ETV
attr source sum(dataBytesReceived)
vector 3 NetworkTormV2 totalBytesReceivedSum:vector ETV
attr source sum(totalBytesReceived)
0	7	0.05	1
0	8	0.05	1
0	14	0.1	1
0	15	0.1	1
0	16	0.1	1
0	17	0.1	1
0	125	0.15	1
0	126	0.15	1
0	231	0.2	1
0	232	0.2	1
0	233	0.2	1
0	234	0.2	1
0	243	0.25	1
0	244	0.25	1
0	249	0.3	1
0	250	0.3	1
0	251	0.3	1
0	252	0.3	1
0	261	0.35	1
0	262	0.35	1
0	267	0.4	1
0	268	0.4	1
0	269	0.4	1
0	270	0.4	1
0	279	0.45	1
0	280	0.45	1
0	285	0.5	1
0	286	0.5	1
0	287	0.5	1
0	288	0.5	1
0	297	0.55	1
0	298	0.55	1
0	303	0.6	1
0	304	0.6	1
0	305	0.6	1
0	306	0.6	1
0	315	0.65	1
0	316	0.65	1
0	321	0.7	1
0	322	0.7	1
0	323	0.7	1
0	324	0.7	1
0	333	0.75	1
0	334	0.75	1
0	339	0.8	1
0	340	0.8	1
0	341	0.8	1
0	342	0.8	1
0	351	0.85	1
0	352	0.85	1
0	357	0.9	1
0	358	0.9	1
0	359	0.9	1
0	360	0.9	1
0	369	0.95	1
0	370	0.95	1
0	375	1	1
0	376	1	1
0	377	1	1
0	378	1	1
0	387	1.05	1
0	388	1.05	1
0	393	1.1	1
0	394	1.1	1
0	395	1.1	1
0	396	1.1	1
0	701	1.15	1
0	702	1.15	1
0	797	1.2	1
0	798	1.2	1
0	799	1.2	1
0	800	1.2	1
0	899	1.25	1
0	900	1.25	1
0	1001	1.3	1
0	1002	1.3	1
0	1003	1.3	1
0	1004	1.3	1
0	1103	1.35	1
0	1104	1.35	1
0	1210	1.4	1
0	1211	1.4	1
0	1212	1.4	1
0	1213	1.4	1
0	1316	1.45	1
0	1317	1.45	1
0	1412	1.5	1
0	1413	1.5	1
0	1414	1.5	1
0	1415	1.5	1
0	1520	1.55	1
0	1521	1.55	1
0	1618	1.6	1
0	1619	1.6	1
0	1620	1.6	1
0	1621	1.6	1
0	1720	1.65	1
0	1721	1.65	1
0	2234	1.7	1
0	2235	1.7	1
0	2236	1.7	1
0	2237	1.7	1
0	2360	1.75	1
0	2361	1.75	1
0	2474	1.8	1
0	2475	1.8	1
0	2476	1.8	1
0	2477	1.8	1
0	2596	1.85	1
0	2597	1.85	1
0	2710	1.9	1
0	2711	1.9	1
0	2712	1.9	1
0	2713	1.9	1
0	2836	1.95	1
0	2837	1.95	1
0	2956	2	1
0	2957	2	1
0	2958	2	1
0	2959	2	1
0	3076	2.05	1
0	3077	2.05	1
0	3190	2.1	1
0	3191	2.1	1
0	3192	2.1	1
0	3193	2.1	1
0	3310	2.15	1
0	3311	2.15	1
0	3430	2.2	1
0	3431	2.2	1
0	3432	2.2	1
0	3433	2.2	1
0	3790	2.25	1
0	3791	2.25	1
0	3951	2.3	1
0	3952	2.3	1
0	3953	2.3	1
0	3954	2.3	1
0	4119	2.35	1
0	4120	2.35	1
0	4281	2.4	1
0	4282	2.4	1
0	4283	2.4	1
0	4284	2.4	1
0	4451	2.45	1
0	4452	2.45	1
0	4577	2.5	1
0	4578	2.5	1
0	4579	2.5	1
0	4580	2.5	1
0	4679	2.55	1
0	4680	2.55	1
0	4779	2.6	1
0	4780	2.6	1
0	4781	2.6	1
0	4782	2.6	1
0	4881	2.65	1
0	4882	2.65	1
0	4977	2.7	1
0	4978	2.7	1
0	4979	2.7	1
0	4980	2.7	1
0	5085	2.75	1
0	5086	2.75	1
0	5181	2.8	1
0	5182	2.8	1
0	5183	2.8	1
0	5184	2.8	1
0	5283	2.85	1
0	5284	2.85	1
0	5383	2.9	1
0	5384	2.9	1
0	5385	2.9	1
0	5386	2.9	1
0	5485	2.95	1
0	5486	2.95	1
0	5587	3	1
0	5588	3	1
0	5589	3	1
0	5590	3	1
0	5890	3.05	1
0	5891	3.05	1
0	5990	3.1	1
0	5991	3.1	1
0	5992	3.1	1
0	5993	3.1	1
0	6092	3.15	1
0	6093	3.15	1
0	6190	3.2	1
0	6191	3.2	1
0	6192	3.2	1
0	6193	3.2	1
0	6298	3.25	1
0	6299	3.25	1
0	6394	3.3	1
0	6395	3.3	1
0	6396	3.3	1
0	6397	3.3	1
0	6500	3.35	1
0	6501	3.35	1
0	6596	3.4	1
0	6597	3.4	1
0	6598	3.4	1
0	6599	3.4	1
0	6698	3.45	1
0	6699	3.45	1
0	6800	3.5	1
0	6801	3.5	1
0	6802	3.5	1
0	6803	3.5	1
0	6902	3.55	1
0	6903	3.55	1
0	7203	3.6	1
0	7204	3.6	1
0	7205	3.6	1
0	7206	3.6	1
0	7305	3.65	1
0	7306	3.65	1
0	7401	3.7	1
0	7402	3.7	1
0	7403	3.7	1
0	7404	3.7	1
0	7511	3.75	1
0	7512	3.75	1
0	7607	3.8	1
0	7608	3.8	1
0	7609	3.8	1
0	7610	3.8	1
0	7713	3.85	1
0	7714	3.85	1
0	7809	3.9	1
0	7810	3.9	1
0	7811	3.9	1
0	7812	3.9	1
0	7911	3.95	1
0	7912	3.95	1
0	8013	4	1
0	8014	4	1
0	8015	4	1
0	8016	4	1
0	8115	4.05	1
0	8116	4.05	1
0	8215	4.1	1
0	8216	4.1	1
0	8217	4.1	1
0	8218	4.1	1
0	8518	4.15	1
0	8519	4.15	1
0	8620	4.2	1
0	8621	4.2	1
0	8622	4.2	1
0	8623	4.2	1
0	8722	4.25	1
0	8723	4.25	1
0	8820	4.3	1
0	8821	4.3	1
0	8822	4.3	1
0	8823	4.3	1
0	8926	4.35	1
0	8927	4.35	1
0	9022	4.4	1
0	9023	4.4	1
0	9024	4.4	1
0	9025	4.4	1
0	9130	4.45	1
0	9131	4.45	1
0	9226	4.5	1
0	9227	4.5	1
0	9228	4.5	1
0	9229	4.5	1
0	9328	4.55	1
0	9329	4.55	1
0	9428	4.6	1
0	9429	4.6	1
0	9430	4.6	1
0	9431	4.6	1
0	9530	4.65	1
0	9531	4.65	1
0	9833	4.7	1
0	9834	4.7	1
0	9835	4.7	1
0	9836	4.7	1
0	9935	4.75	1
0	9936	4.75	1
0	10035	4.8	1
0	10036	4.8	1
0	10037	4.8	1
0	10038	4.8	1
0	10139	4.85	1
0	10140	4.85	1
0	10235	4.9	1
0	10236	4.9	1
0	10237	4.9	1
0	10238	4.9	1
0	10343	4.95	1
0	10344	4.95	1
0	10439	5	1
0	10440	5	1
0	10441	5	1
0	10442	5	1
0	10541	5.05	1
0	10542	5.05	1
0	10641	5.1	1
0	10642	5.1	1
0	10643	5.1	1
0	10644	5.1	1
0	10743	5.15	1
0	10744	5.15	1
0	10845	5.2	1
0	10846	5.2	1
0	10847	5.2	1
0	10848	5.2	1
0	11148	5.25	1
0	11149	5.25	1
0	11248	5.3	1
0	11249	5.3	1
0	11250	5.3	1
0	11251	5.3	1
0	11350	5.35	1
0	11351	5.35	1
0	11448	5.4	1
0	11449	5.4	1
0	11450	5.4	1
0	11451	5.4	1
0	11556	5.45	1
0	11557	5.45	1
0	11652	5.5	1
0	11653	5.5	1
0	11654	5.5	1
0	11655	5.5	1
0	11758	5.55	1
0	11759	5.55	1
0	11854	5.6	1
0	11855	5.6	1
0	11856	5.6	1
0	11857	5.6	1
0	11956	5.65	1
0	11957	5.65	1
0	12058	5.7	1
0	12059	5.7	1
0	12060	5.7	1
0	12061	5.7	1
0	12160	5.75	1
0	12161	5.75	1
0	12461	5.8	1
0	12462	5.8	1
0	12463	5.8	1
0	12464	5.8	1
0	12563	5.85	1
0	12564	5.85	1
0	12659	5.9	1
0	12660	5.9	1
0	12661	5.9	1
0	12662	5.9	1
0	12769	5.95	1
0	12770	5.95	1
0	12865	6	1
0	12866	6	1
0	12867	6	1
0	12868	6	1
0	12971	6.05	1
0	12972	6.05	1
0	13067	6.1	1
0	13068	6.1	1
0	13069	6.1	1
0	13070	6.1	1
0	13169	6.15	1
0	13170	6.15	1
0	13271	6.2	1
0	13272	6.2	1
0	13273	6.2	1
0	13274	6.2	1
0	13373	6.25	1
0	13374	6.25	1
0	13473	6.3	1
0	13474	6.3	1
0	13475	6.3	1
0	13476	6.3	1
0	13776	6.35	1
0	13777	6.35	1
0	13878	6.4	1
0	13879	6.4	1
0	13880	6.4	1
0	13881	6.4	1
0	13980	6.45	1
0	13981	6.45	1
0	14078	6.5	1
0	14079	6.5	1
0	14080	6.5	1
0	14081	6.5	1
0	14184	6.55	1
0	14185	6.55	1
0	14280	6.6	1
0	14281	6.6	1
0	14282	6.6	1
0	14283	6.6	1
0	14388	6.65	1
0	14389	6.65	1
0	14484	6.7	1
0	14485	6.7	1
0	14486	6.7	1
0	14487	6.7	1
0	14586	6.75	1
0	14587	6.75	1
0	14686	6.8	1
0	14687	6.8	1
0	14688	6.8	1
0	14689	6.8	1
0	14788	6.85	1
0	14789	6.85	1
0	15091	6.9	1
0	15092	6.9	1
0	15093	6.9	1
0	15094	6.9	1
0	15193	6.95	1
0	15194	6.95	1
0	15293	7	1
0	15294	7	1
0	15295	7	1
0	15296	7	1
0	15397	7.05	1
0	15398	7.05	1
0	15493	7.1	1
0	15494	7.1	1
0	15495	7.1	1
0	15496	7.1	1
0	15601	7.15	1
0	15602	7.15	1
0	15697	7.2	1
0	15698	7.2	1
0	15699	7.2	1
0	15700	7.2	1
0	15799	7.25	1
0	15800	7.25	1
0	15899	7.3	1
0	15900	7.3	1
0	15901	7.3	1
0	15902	7.3	1
0	16001	7.35	1
0	16002	7.35	1
0	16103	7.4	1
0	16104	7.4	1
0	16105	7.4	1
0	16106	7.4	1
0	16406	7.45	1
0	16407	7.45	1
0	16506	7.5	1
0	16507	7.5	1
0	16508	7.5	1
0	16509	7.5	1
0	16608	7.55	1
0	16609	7.55	1
0	16706	7.6	1
0	16707	7.6	1
0	16708	7.6	1
0	16709	7.6	1
0	16814	7.65	1
0	16815	7.65	1
0	16910	7.7	1
0	16911	7.7	1
0	16912	7.7	1
0	16913	7.7	1
0	17016	7.75	1
0	17017	7.75	1
0	17112	7.8	1
0	17113	7.8	1
0	17114	7.8	1
0	17115	7.8	1
0	17214	7.85	1
0	17215	7.85	1
0	17316	7.9	1
0	17317	7.9	1
0	17318	7.9	1
0	17319	7.9	1
0	17418	7.95	1
0	17419	7.95	1
0	17719	8	1
0	17720	8	1
0	17721	8	1
0	17722	8	1
0	17821	8.05	1
0	17822	8.05	1
0	17917	8.1	1
0	17918	8.1	1
0	17919	8.1	1
0	17920	8.1	1
0	18027	8.15	1
0	18028	8.15	1
0	18123	8.2	1
0	18124	8.2	1
0	18125	8.2	1
0	18126	8.2	1
0	18229	8.25	1
0	18230	8.25	1
0	18325	8.3	1
0	18326	8.3	1
0	18327	8.3	1
0	18328	8.3	1
0	18427	8.35	1
0	18428	8.35	1
0	18529	8.4	1
0	18530	8.4	1
0	18531	8.4	1
0	18532	8.4	1
0	18631	8.45	1
0	18632	8.45	1
0	18731	8.5	1
0	18732	8.5	1
0	18733	8.5	1
0	18734	8.5	1
0	19034	8.55	1
0	19035	8.55	1
0	19136	8.6	1
0	19137	8.6	1
0	19138	8.6	1
0	19139	8.6	1
0	19238	8.65	1
0	19239	8.65	1
0	19336	8.7	1
0	19337	8.7	1
0	19338	8.7	1
0	19339	8.7	1
0	19442	8.75	1
0	19443	8.75	1
0	19538	8.8	1
0	19539	8.8	1
0	19540	8.8	1
0	19541	8.8	1
0	19646	8.85	1
0	19647	8.85	1
0	19742	8.9	1
0	19743	8.9	1
0	19744	8.9	1
0	19745	8.9	1
0	19844	8.95	1
0	19845	8.95	1
0	19944	9	1
0	19945	9	1
0	19946	9	1
0	19947	9	1
0	20046	9.05	1
0	20047	9.05	1
0	20349	9.1	1
0	20350	9.1	1
0	20351	9.1	1
0	20352	9.1	1
0	20451	9.15	1
0	20452	9.15	1
0	20551	9.2	1
0	20552	9.2	1
0	20553	9.2	1
0	20554	9.2	1
0	20655	9.25	1
0	20656	9.25	1
0	20751	9.3	1
0	20752	9.3	1
0	20753	9.3	1
0	20754	9.3	1
0	20859	9.35	1
0	20860	9.35	1
0	20955	9.4	1
0	20956	9.4	1
0	20957	9.4	1
0	20958	9.4	1
0	21057	9.45	1
0	21058	9.45	1
0	21157	9.5	1
0	21158	9.5	1
0	21159	9.5	1
0	21160	9.5	1
0	21259	9.55	1
0	21260	9.55	1
0	21559	9.6	1
0	21560	9.6	1
0	21561	9.6	1
0	21562	9.6	1
0	21664	9.65	1
0	21665	9.65	1
0	21764	9.7	1
0	21765	9.7	1
0	21766	9.7	1
0	21767	9.7	1
0	21866	9.75	1
0	21867	9.75	1
0	21964	9.8	1
0	21965	9.8	1
0	21966	9.8	1
0	21967	9.8	1
0	22072	9.85	1
0	22073	9.85	1
0	22168	9.9	1
0	22169	9.9	1
0	22170	9.9	1
0	22171	9.9	1
0	22274	9.95	1
0	22275	9.95	1
0	22370	10	1
0	22371	10	1
0	22372	10	1
0	22373	10	1
1	13	0.1	-nan
1	27	0.101	-nan
1	29	0.102	-nan
1	31	0.103	-nan
1	33	0.104	-nan
1	35	0.105	-nan
1	37	0.106	-nan
1	39	0.107	-nan
1	41	0.108	-nan
1	43	0.109	-nan
1	45	0.11	-nan
1	47	0.111	-nan
1	49	0.112	-nan
1	51	0.113	-nan
1	53	0.114	-nan
1	55	0.115	-nan
1	57	0.116	-nan
1	59	0.117	-nan
1	61	0.118	-nan
1	63	0.119	-nan
1	65	0.12	-nan
1	67	0.121	-nan
1	69	0.122	-nan
1	71	0.123	-nan
1	73	0.124	-nan
1	75	0.125	-nan
1	77	0.126	-nan
1	79	0.127	-nan
1	81	0.128	-nan
1	83	0.129	-nan
1	85	0.13	-nan
1	87	0.131	-nan
1	89	0.132	-nan
1	91	0.133	-nan
1	93	0.134	-nan
1	95	0.135	-nan
1	97	0.136	-nan
1	99	0.137	-nan
1	101	0.138	-nan
1	103	0.139	-nan
1	105	0.14	-nan
1	107	0.141	-nan
1	109	0.142	-nan
1	111	0.143	-nan
1	113	0.144	-nan
1	115	0.145	-nan
1	117	0.146	-nan
1	119	0.147	-nan
1	121	0.148	-nan
1	123	0.149	-nan
1	127	0.15	-nan
1	133	0.151	-nan
1	135	0.152	-nan
1	137	0.153	-nan
1	139	0.154	-nan
1	141	0.155	-nan
1	143	0.156	-nan
1	145	0.157	-nan
1	147	0.158	-nan
1	149	0.159	-nan
1	151	0.16	-nan
1	153	0.161	-nan
1	155	0.162	-nan
1	157	0.163	-nan
1	159	0.164	-nan
1	161	0.165	-nan
1	163	0.166	-nan
1	165	0.167	-nan
1	167	0.168	-nan
1	169	0.169	-nan
1	171	0.17	-nan
1	173	0.171	-nan
1	175	0.172	-nan
1	177	0.173	-nan
1	179	0.174	-nan
1	181	0.175	-nan
1	183	0.176	-nan
1	185	0.177	-nan
1	187	0.178	-nan
1	189	0.179	-nan
1	191	0.18	-nan
1	193	0.181	-nan
1	195	0.182	-nan
1	197	0.183	-nan
1	199	0.184	-nan
1	201	0.185	-nan
1	203	0.186	-nan
1	205	0.187	-nan
1	207	0.188	-nan
1	209	0.189	-nan
1	211	0.19	-nan
1	213	0.191	-nan
1	215	0.192	-nan
1	217	0.193	-nan
1	219	0.194	-nan
1	221	0.195	-nan
1	223	0.196	-nan
1	225	0.197	-nan
1	227	0.198	-nan
1	229	0.199	-nan
2	634	1.11456	36
2	644	1.12	72
2	654	1.12544	108
2	664	1.13088	144
2	674	1.13632	180
2	684	1.14176	216
2	694	1.1472	252
2	710	1.15264	288
2	720	1.15808	324
2	730	1.16352	360
2	740	1.16896	396
2	750	1.1744	432
2	760	1.17984	468
2	770	1.18528	504
2	780	1.19072	540
2	790	1.19616	576
2	812	1.2016	612
2	822	1.20704	648
2	832	1.21248	684
2	842	1.21792	720
2	852	1.22336	756
2	862	1.2288	792
2	872	1.23424	828
2	882	1.23968	864
2	892	1.24512	900
2	908	1.25056	936
2	918	1.256	972
2	928	1.26144	1008
2	938	1.26688	1044
2	948	1.27232	1080
2	958	1.27776	1116
2	968	1.2832	1152
2	978	1.28864	1188
2	988	1.29408	1224
2	998	1.29952	1260
2	1020	1.30496	1296
2	1030	1.3104	1332
2	1040	1.31584	1368
2	1050	1.32128	1404
2	1060	1.32672	1440
2	1070	1.33216	1476
2	1080	1.3376	1512
2	1090	1.34304	1548
2	1100	1.34848	1584
2	1120	1.35392	1620
2	1137	1.35936	1656
2	1147	1.3648	1692
2	1157	1.37024	1728
2	1167	1.37568	1764
2	1177	1.38112	1800
2	1187	1.38656	1836
2	1197	1.392	1872
2	1207	1.39744	1908
2	1229	1.40288	1944
2	1239	1.40832	1980
2	1249	1.41376	2016
2	1259	1.4192	2052
2	1269	1.42464	2088
2	1279	1.43008	2124
2	1289	1.43552	2160
2	1299	1.44096	2196
2	1309	1.4464	2232
2	1325	1.45184	2268
2	1335	1.45728	2304
2	1345	1.46272	2340
2	1355	1.46816	2376
2	1365	1.4736	2412
2	1375	1.47904	2448
2	1385	1.48448	2484
2	1395	1.48992	2520
2	1405	1.49536	2556
2	1427	1.5008	2592
2	1437	1.50624	2628
2	1447	1.51168	2664
2	1457	1.51712	2700
2	1467	1.52256	2736
2	1477	1.528	2772
2	1487	1.53344	2808
2	1497	1.53888	2844
2	1507	1.54432	2880
2	1517	1.54976	2916
2	1535	1.5552	2952
2	1545	1.56064	2988
2	1555	1.56608	3024
2	1565	1.57152	3060
2	1575	1.57696	3096
2	1585	1.5824	3132
2	1595	1.58784	3168
2	1605	1.59328	3204
2	1615	1.59872	3240
2	1637	1.60416	3276
2	1647	1.6096	3312
2	1657	1.61504	3348
2	1667	1.62048	3384
2	1677	1.62592	3420
2	1687	1.63136	3456
2	1697	1.6368	3492
2	1707	1.64224	3528
2	1717	1.64768	3564
2	1733	1.65312	3600
2	2165	1.66768	3636
2	2171	1.67216	3672
2	2177	1.67312	3708
2	2183	1.6776	3744
2	2189	1.67856	3780
2	2195	1.68304	3816
2	2201	1.684	3852
2	2207	1.68848	3888
2	2213	1.68944	3924
2	2219	1.69392	3960
2	2225	1.69488	3996
2	2231	1.69936	4032
2	2249	1.70032	4068
2	2255	1.7048	4104
2	2261	1.70576	4140
2	2267	1.71024	4176
2	2273	1.7112	4212
2	2279	1.71568	4248
2	2285	1.71664	4284
2	2291	1.72112	4320
2	2297	1.72208	4356
2	2303	1.72656	4392
2	2309	1.72752	4428
2	2315	1.732	4464
2	2321	1.73296	4500
2	2327	1.73744	4536
2	2333	1.7384	4572
2	2339	1.74288	4608
2	2345	1.74384	4644
2	2351	1.74832	4680
2	2357	1.74928	4716
2	2369	1.75376	4752
2	2375	1.75472	4788
2	2381	1.7592	4824
2	2387	1.76016	4860
2	2393	1.76464	4896
2	2399	1.7656	4932
2	2405	1.77008	4968
2	2411	1.77104	5004
2	2417	1.77552	5040
2	2423	1.77648	5076
2	2429	1.78096	5112
2	2435	1.78192	5148
2	2441	1.7864	5184
2	2447	1.78736	5220
2	2453	1.79184	5256
2	2459	1.7928	5292
2	2465	1.79728	5328
2	2471	1.79824	5364
2	2491	1.80272	5400
2	2497	1.80368	5436
2	2503	1.80816	5472
2	2509	1.80912	5508
2	2515	1.8136	5544
2	2521	1.81456	5580
2	2527	1.81904	5616
2	2533	1.82	5652
2	2539	1.82448	5688
2	2545	1.82544	5724
2	2551	1.82992	5760
2	2557	1.83088	5796
2	2563	1.83536	5832
2	2569	1.83632	5868
2	2575	1.8408	5904
2	2581	1.84176	5940
2	2587	1.84624	5976
2	2593	1.8472	6012
2	2605	1.85168	6048
2	2611	1.85264	6084
2	2617	1.85712	6120
2	2623	1.85808	6156
2	2629	1.86256	6192
2	2635	1.86352	6228
2	2641	1.868	6264
2	2647	1.86896	6300
2	2653	1.87344	6336
2	2659	1.8744	6372
2	2665	1.87888	6408
2	2671	1.87984	6444
2	2677	1.88432	6480
2	2683	1.88528	6516
2	2689	1.88976	6552
2	2695	1.89072	6588
2	2701	1.8952	6624
2	2707	1.89616	6660
2	2725	1.90064	6696
2	2731	1.9016	6732
2	2737	1.90608	6768
2	2743	1.90704	6804
2	2749	1.91152	6840
2	2755	1.91248	6876
2	2761	1.91696	6912
2	2767	1.91792	6948
2	2773	1.9224	6984
2	2779	1.92336	7020
2	2785	1.92784	7056
2	2791	1.9288	7092
2	2797	1.93328	7128
2	2803	1.93424	7164
2	2809	1.93872	7200
2	2815	1.93968	7236
2	2821	1.94416	7272
2	2827	1.94512	7308
2	2833	1.9496	7344
2	2845	1.95056	7380
2	2851	1.95504	7416
2	2857	1.956	7452
2	2863	1.96048	7488
2	2869	1.96144	7524
2	2875	1.96592	7560
2	2881	1.96688	7596
2	2887	1.97136	7632
2	2893	1.97232	7668
2	2899	1.9768	7704
2	2905	1.97776	7740
2	2911	1.98224	7776
2	2917	1.9832	7812
2	2923	1.98768	7848
2	2929	1.98864	7884
2	2935	1.99312	7920
2	2941	1.99408	7956
2	2947	1.99856	7992
2	2953	1.99952	8028
2	2971	2.004	8064
2	2977	2.00496	8100
2	2983	2.00944	8136
2	2989	2.0104	8172
2	2995	2.01488	8208
2	3001	2.01584	8244
2	3007	2.02032	8280
2	3013	2.02128	8316
2	3019	2.02576	8352
2	3025	2.02672	8388
2	3031	2.0312	8424
2	3037	2.03216	8460
2	3043	2.03664	8496
2	3049	2.0376	8532
2	3055	2.04208	8568
2	3061	2.04304	8604
2	3067	2.04752	8640
2	3073	2.04848	8676
2	3085	2.05296	8712
2	3091	2.05392	8748
2	3097	2.0584	8784
2	3103	2.05936	8820
2	3109	2.06384	8856
2	3115	2.0648	8892
2	3121	2.06928	8928
2	3127	2.07024	8964
2	3133	2.07472	9000
2	3139	2.07568	9036
2	3145	2.08016	9072
2	3151	2.08112	9108
2	3157	2.0856	9144
2	3163	2.08656	9180
2	3169	2.09104	9216
2	3175	2.092	9252
2	3181	2.09648	9288
2	3187	2.09744	9324
2	3205	2.10192	9360
2	3211	2.10288	9396
2	3217	2.10736	9432
2	3223	2.10832	9468
2	3229	2.1128	9504
2	3235	2.11376	9540
2	3241	2.11824	9576
2	3247	2.1192	9612
2	3253	2.12368	9648
2	3259	2.12464	9684
2	3265	2.12912	9720
2	3271	2.13008	9756
2	3277	2.13456	9792
2	3283	2.13552	9828
2	3289	2.14	9864
2	3295	2.14096	9900
2	3301	2.14544	9936
2	3307	2.1464	9972
2	3319	2.15088	10008
2	3325	2.15184	10044
2	3331	2.15632	10080
2	3337	2.15728	10116
2	3343	2.16176	10152
2	3349	2.16272	10188
2	3355	2.1672	10224
2	3361	2.16816	10260
2	3367	2.17264	10296
2	3373	2.1736	10332
2	3379	2.17808	10368
2	3385	2.17904	10404
2	3391	2.18352	10440
2	3397	2.18448	10476
2	3403	2.18896	10512
2	3409	2.18992	10548
2	3415	2.1944	10584
2	3421	2.19536	10620
2	3427	2.19984	10656
2	3445	2.2008	10692
2	3451	2.20528	10728
2	3457	2.20624	10764
2	3463	2.21072	10800
2	4524	2.47216	10836
2	4534	2.4776	10872
2	4544	2.48304	10908
2	4554	2.48848	10944
2	4564	2.49392	10980
2	4574	2.49936	11016
2	4596	2.5048	11052
2	4606	2.51024	11088
2	4616	2.51568	11124
2	4626	2.52112	11160
2	4636	2.52656	11196
2	4646	2.532	11232
2	4656	2.53744	11268
2	4666	2.54288	11304
2	4676	2.54832	11340
2	4692	2.55376	11376
2	4702	2.5592	11412
2	4712	2.56464	11448
2	4722	2.57008	11484
2	4732	2.57552	11520
2	4742	2.58096	11556
2	4752	2.5864	11592
2	4762	2.59184	11628
2	4772	2.59728	11664
2	4794	2.60272	11700
2	4804	2.60816	11736
2	4814	2.6136	11772
2	4824	2.61904	11808
2	4834	2.62448	11844
2	4844	2.62992	11880
2	4854	2.63536	11916
2	4864	2.6408	11952
2	4874	2.64624	11988
2	4890	2.65168	12024
2	4900	2.65712	12060
2	4910	2.66256	12096
2	4920	2.668	12132
2	4930	2.67344	12168
2	4940	2.67888	12204
2	4950	2.68432	12240
2	4960	2.68976	12276
2	4970	2.6952	12312
2	4992	2.70064	12348
2	5002	2.70608	12384
2	5012	2.71152	12420
2	5022	2.71696	12456
2	5032	2.7224	12492
2	5042	2.72784	12528
2	5052	2.73328	12564
2	5062	2.73872	12600
2	5072	2.74416	12636
2	5082	2.7496	12672
2	5098	2.75504	12708
2	5108	2.76048	12744
2	5118	2.76592	12780
2	5128	2.77136	12816
2	5138	2.7768	12852
2	5148	2.78224	12888
2	5158	2.78768	12924
2	5168	2.79312	12960
2	5178	2.79856	12996
2	5200	2.804	13032
2	5210	2.80944	13068
2	5220	2.81488	13104
2	5230	2.82032	13140
2	5240	2.82576	13176
2	5250	2.8312	13212
2	5260	2.83664	13248
2	5270	2.84208	13284
2	5280	2.84752	13320
2	5296	2.85296	13356
2	5306	2.8584	13392
2	5316	2.86384	13428
2	5326	2.86928	13464
2	5336	2.87472	13500
2	5346	2.88016	13536
2	5356	2.8856	13572
2	5366	2.89104	13608
2	5376	2.89648	13644
2	5398	2.90192	13680
2	5408	2.90736	13716
2	5418	2.9128	13752
2	5428	2.91824	13788
2	5438	2.92368	13824
2	5448	2.92912	13860
2	5458	2.93456	13896
2	5468	2.94	13932
2	5478	2.94544	13968
2	5494	2.95088	14004
2	5504	2.95632	14040
2	5514	2.96176	14076
2	5524	2.9672	14112
2	5534	2.97264	14148
2	5544	2.97808	14184
2	5554	2.98352	14220
2	5564	2.98896	14256
2	5574	2.9944	14292
2	5584	2.99984	14328
2	5606	3.00528	14364
2	5616	3.01072	14400
2	5837	3.0208	14436
2	5847	3.02624	14472
2	5857	3.03168	14508
2	5867	3.03712	14544
2	5877	3.04256	14580
2	5887	3.048	14616
2	5903	3.05344	14652
2	5913	3.05888	14688
2	5923	3.06432	14724
2	5933	3.06976	14760
2	5943	3.0752	14796
2	5953	3.08064	14832
2	5963	3.08608	14868
2	5973	3.09152	14904
2	5983	3.09696	14940
2	6005	3.1024	14976
2	6015	3.10784	15012
2	6025	3.11328	15048
2	6035	3.11872	15084
2	6045	3.12416	15120
2	6055	3.1296	15156
2	6065	3.13504	15192
2	6075	3.14048	15228
2	6085	3.14592	15264
2	6103	3.15136	15300
2	6113	3.1568	15336
2	6123	3.16224	15372
2	6133	3.16768	15408
2	6143	3.17312	15444
2	6153	3.17856	15480
2	6163	3.184	15516
2	6173	3.18944	15552
2	6183	3.19488	15588
2	6205	3.20032	15624
2	6215	3.20576	15660
2	6225	3.2112	15696
2	6235	3.21664	15732
2	6245	3.22208	15768
2	6255	3.22752	15804
2	6265	3.23296	15840
2	6275	3.2384	15876
2	6285	3.24384	15912
2	6295	3.24928	15948
2	6311	3.25472	15984
2	6321	3.26016	16020
2	6331	3.2656	16056
2	6341	3.27104	16092
2	6351	3.27648	16128
2	6361	3.28192	16164
2	6371	3.28736	16200
2	6381	3.2928	16236
2	6391	3.29824	16272
2	6413	3.30368	16308
2	6423	3.30912	16344
2	6433	3.31456	16380
2	6443	3.32	16416
2	6453	3.32544	16452
2	6463	3.33088	16488
2	6473	3.33632	16524
2	6483	3.34176	16560
2	6493	3.3472	16596
2	6509	3.35264	16632
2	6519	3.35808	16668
2	6529	3.36352	16704
2	6539	3.36896	16740
2	6549	3.3744	16776
2	6559	3.37984	16812
2	6569	3.38528	16848
2	6579	3.39072	16884
2	6589	3.39616	16920
2	6611	3.4016	16956
2	6621	3.40704	16992
2	6631	3.41248	17028
2	6641	3.41792	17064
2	6651	3.42336	17100
2	6661	3.4288	17136
2	6671	3.43424	17172
2	6681	3.43968	17208
2	6691	3.44512	17244
2	6707	3.45056	17280
2	6717	3.456	17316
2	6727	3.46144	17352
2	6737	3.46688	17388
2	6747	3.47232	17424
2	6757	3.47776	17460
2	6767	3.4832	17496
2	6777	3.48864	17532
2	6787	3.49408	17568
2	6797	3.49952	17604
2	6819	3.50496	17640
2	6829	3.5104	17676
2	6839	3.51584	17712
2	6849	3.52128	17748
2	6859	3.52672	17784
2	6869	3.53216	17820
2	6879	3.5376	17856
2	6889	3.54304	17892
2	6899	3.54848	17928
2	6915	3.55392	17964
2	6925	3.55936	18000
2	7146	3.56944	18036
2	7156	3.57488	18072
2	7166	3.58032	18108
2	7176	3.58576	18144
2	7186	3.5912	18180
2	7196	3.59664	18216
2	7218	3.60208	18252
2	7228	3.60752	18288
2	7238	3.61296	18324
2	7248	3.6184	18360
2	7258	3.62384	18396
2	7268	3.62928	18432
2	7278	3.63472	18468
2	7288	3.64016	18504
2	7298	3.6456	18540
2	7314	3.65104	18576
2	7324	3.65648	18612
2	7334	3.66192	18648
2	7344	3.66736	18684
2	7354	3.6728	18720
2	7364	3.67824	18756
2	7374	3.68368	18792
2	7384	3.68912	18828
2	7394	3.69456	18864
2	7417	3.7	18900
2	7428	3.70544	18936
2	7438	3.71088	18972
2	7448	3.71632	19008
2	7458	3.72176	19044
2	7468	3.7272	19080
2	7478	3.73264	19116
2	7488	3.73808	19152
2	7498	3.74352	19188
2	7508	3.74896	19224
2	7524	3.7544	19260
2	7534	3.75984	19296
2	7544	3.76528	19332
2	7554	3.77072	19368
2	7564	3.77616	19404
2	7574	3.7816	19440
2	7584	3.78704	19476
2	7594	3.79248	19512
2	7604	3.79792	19548
2	7626	3.80336	19584
2	7636	3.8088	19620
2	7646	3.81424	19656
2	7656	3.81968	19692
2	7666	3.82512	19728
2	7676	3.83056	19764
2	7686	3.836	19800
2	7696	3.84144	19836
2	7706	3.84688	19872
2	7722	3.85232	19908
2	7732	3.85776	19944
2	7742	3.8632	19980
2	7752	3.86864	20016
2	7762	3.87408	20052
2	7772	3.87952	20088
2	7782	3.88496	20124
2	7792	3.8904	20160
2	7802	3.89584	20196
2	7824	3.90128	20232
2	7834	3.90672	20268
2	7844	3.91216	20304
2	7854	3.9176	20340
2	7864	3.92304	20376
2	7874	3.92848	20412
2	7884	3.93392	20448
2	7894	3.93936	20484
2	7904	3.9448	20520
2	7920	3.95024	20556
2	7930	3.95568	20592
2	7940	3.96112	20628
2	7950	3.96656	20664
2	7960	3.972	20700
2	7970	3.97744	20736
2	7980	3.98288	20772
2	7990	3.98832	20808
2	8000	3.99376	20844
2	8010	3.9992	20880
2	8032	4.00464	20916
2	8042	4.01008	20952
2	8052	4.01552	20988
2	8062	4.02096	21024
2	8072	4.0264	21060
2	8082	4.03184	21096
2	8092	4.03728	21132
2	8102	4.04272	21168
2	8112	4.04816	21204
2	8128	4.0536	21240
2	8138	4.05904	21276
2	8148	4.06448	21312
2	8158	4.06992	21348
2	8168	4.07536	21384
2	8178	4.0808	21420
2	8188	4.08624	21456
2	8198	4.09168	21492
2	8208	4.09712	21528
2	8230	4.10256	21564
2	8240	4.108	21600
2	8461	4.11808	21636
2	8471	4.12352	21672
2	8481	4.12896	21708
2	8491	4.1344	21744
2	8501	4.13984	21780
2	8511	4.14528	21816
2	8527	4.15072	21852
2	8537	4.15616	21888
2	8547	4.1616	21924
2	8557	4.16704	21960
2	8567	4.17248	21996
2	8577	4.17792	22032
2	8587	4.18336	22068
2	8597	4.1888	22104
2	8607	4.19424	22140
2	8617	4.19968	22176
2	8639	4.20512	22212
2	8649	4.21056	22248
2	8659	4.216	22284
2	8669	4.22144	22320
2	8679	4.22688	22356
2	8689	4.23232	22392
2	8699	4.23776	22428
2	8709	4.2432	22464
2	8719	4.24864	22500
2	8737	4.25408	22536
2	8747	4.25952	22572
2	8757	4.26496	22608
2	8767	4.2704	22644
2	8777	4.27584	22680
2	8787	4.28128	22716
2	8797	4.28672	22752
2	8807	4.29216	22788
2	8817	4.2976	22824
2	8839	4.30304	22860
2	8849	4.30848	22896
2	8859	4.31392	22932
2	8869	4.31936	22968
2	8879	4.3248	23004
2	8889	4.33024	23040
2	8899	4.33568	23076
2	8909	4.34112	23112
2	8919	4.34656	23148
2	8935	4.352	23184
2	8945	4.35744	23220
2	8955	4.36288	23256
2	8965	4.36832	23292
2	8975	4.37376	23328
2	8985	4.3792	23364
2	8995	4.38464	23400
2	9005	4.39008	23436
2	9015	4.39552	23472
2	9037	4.40096	23508
2	9047	4.4064	23544
2	9057	4.41184	23580
2	9067	4.41728	23616
2	9077	4.42272	23652
2	9087	4.42816	23688
2	9097	4.4336	23724
2	9107	4.43904	23760
2	9117	4.44448	23796
2	9127	4.44992	23832
2	9143	4.45536	23868
2	9153	4.4608	23904
2	9163	4.46624	23940
2	9173	4.47168	23976
2	9183	4.47712	24012
2	9193	4.48256	24048
2	9203	4.488	24084
2	9213	4.49344	24120
2	9223	4.49888	24156
2	9245	4.50432	24192
2	9255	4.50976	24228
2	9265	4.5152	24264
2	9275	4.52064	24300
2	9285	4.52608	24336
2	9295	4.53152	24372
2	9305	4.53696	24408
2	9315	4.5424	24444
2	9325	4.54784	24480
2	9341	4.55328	24516
2	9351	4.55872	24552
2	9361	4.56416	24588
2	9371	4.5696	24624
2	9381	4.57504	24660
2	9391	4.58048	24696
2	9401	4.58592	24732
2	9411	4.59136	24768
2	9421	4.5968	24804
2	9443	4.60224	24840
2	9453	4.60768	24876
2	9463	4.61312	24912
2	9473	4.61856	24948
2	9483	4.624	24984
2	9493	4.62944	25020
2	9503	4.63488	25056
2	9513	4.64032	25092
2	9523	4.64576	25128
2	9539	4.6512	25164
2	9549	4.65664	25200
2	9770	4.66672	25236
2	9780	4.67216	25272
2	9790	4.6776	25308
2	9800	4.68304	25344
2	9810	4.68848	25380
2	9820	4.69392	25416
2	9830	4.69936	25452
2	9852	4.7048	25488
2	9862	4.71024	25524
2	9872	4.71568	25560
2	9882	4.72112	25596
2	9892	4.72656	25632
2	9902	4.732	25668
2	9912	4.73744	25704
2	9922	4.74288	25740
2	9932	4.74832	25776
2	9948	4.75376	25812
2	9958	4.7592	25848
2	9968	4.76464	25884
2	9978	4.77008	25920
2	9988	4.77552	25956
2	9998	4.78096	25992
2	10008	4.7864	26028
2	10018	4.79184	26064
2	10028	4.79728	26100
2	10052	4.80272	26136
2	10062	4.80816	26172
2	10072	4.8136	26208
2	10082	4.81904	26244
2	10092	4.82448	26280
2	10102	4.82992	26316
2	10112	4.83536	26352
2	10122	4.8408	26388
2	10132	4.84624	26424
2	10148	4.85168	26460
2	10158	4.85712	26496
2	10168	4.86256	26532
2	10178	4.868	26568
2	10188	4.87344	26604
2	10198	4.87888	26640
2	10208	4.88432	26676
2	10218	4.88976	26712
2	10228	4.8952	26748
2	10250	4.90064	26784
2	10260	4.90608	26820
2	10270	4.91152	26856
2	10280	4.91696	26892
2	10290	4.9224	26928
2	10300	4.92784	26964
2	10310	4.93328	27000
2	10320	4.93872	27036
2	10330	4.94416	27072
2	10340	4.9496	27108
2	10356	4.95504	27144
2	10366	4.96048	27180
2	10376	4.96592	27216
2	10386	4.97136	27252
2	10396	4.9768	27288
2	10406	4.98224	27324
2	10416	4.98768	27360
2	10426	4.99312	27396
2	10436	4.99856	27432
2	10458	5.004	27468
2	10468	5.00944	27504
2	10478	5.01488	27540
2	10488	5.02032	27576
2	10498	5.02576	27612
2	10508	5.0312	27648
2	10518	5.03664	27684
2	10528	5.04208	27720
2	10538	5.04752	27756
2	10554	5.05296	27792
2	10564	5.0584	27828
2	10574	5.06384	27864
2	10584	5.06928	27900
2	10594	5.07472	27936
2	10604	5.08016	27972
2	10614	5.0856	28008
2	10624	5.09104	28044
2	10634	5.09648	28080
2	10656	5.10192	28116
2	10666	5.10736	28152
2	10676	5.1128	28188
2	10686	5.11824	28224
2	10696	5.12368	28260
2	10706	5.12912	28296
2	10716	5.13456	28332
2	10726	5.14	28368
2	10736	5.14544	28404
2	10752	5.15088	28440
2	10762	5.15632	28476
2	10772	5.16176	28512
2	10782	5.1672	28548
2	10792	5.17264	28584
2	10802	5.17808	28620
2	10812	5.18352	28656
2	10822	5.18896	28692
2	10832	5.1944	28728
2	10842	5.19984	28764
2	10864	5.20528	28800
2	11085	5.21536	28836
2	11095	5.2208	28872
2	11105	5.22624	28908
2	11115	5.23168	28944
2	11125	5.23712	28980
2	11135	5.24256	29016
2	11145	5.248	29052
2	11161	5.25344	29088
2	11171	5.25888	29124
2	11181	5.26432	29160
2	11191	5.26976	29196
2	11201	5.2752	29232
2	11211	5.28064	29268
2	11221	5.28608	29304
2	11231	5.29152	29340
2	11241	5.29696	29376
2	11263	5.3024	29412
2	11273	5.30784	29448
2	11283	5.31328	29484
2	11293	5.31872	29520
2	11303	5.32416	29556
2	11313	5.3296	29592
2	11323	5.33504	29628
2	11333	5.34048	29664
2	11343	5.34592	29700
2	11361	5.35136	29736
2	11371	5.3568	29772
2	11381	5.36224	29808
2	11391	5.36768	29844
2	11401	5.37312	29880
2	11411	5.37856	29916
2	11421	5.384	29952
2	11431	5.38944	29988
2	11441	5.39488	30024
2	11463	5.40032	30060
2	11473	5.40576	30096
2	11483	5.4112	30132
2	11493	5.41664	30168
2	11503	5.42208	30204
2	11513	5.42752	30240
2	11523	5.43296	30276
2	11533	5.4384	30312
2	11543	5.44384	30348
2	11553	5.44928	30384
2	11569	5.45472	30420
2	11579	5.46016	30456
2	11589	5.4656	30492
2	11599	5.47104	30528
2	11609	5.47648	30564
2	11619	5.48192	30600
2	11629	5.48736	30636
2	11639	5.4928	30672
2	11649	5.49824	30708
2	11671	5.50368	30744
2	11681	5.50912	30780
2	11691	5.51456	30816
2	11701	5.52	30852
2	11711	5.52544	30888
2	11721	5.53088	30924
2	11731	5.53632	30960
2	11741	5.54176	30996
2	11751	5.5472	31032
2	11767	5.55264	31068
2	11777	5.55808	31104
2	11787	5.56352	31140
2	11797	5.56896	31176
2	11807	5.5744	31212
2	11817	5.57984	31248
2	11827	5.58528	31284
2	11837	5.59072	31320
2	11847	5.59616	31356
2	11869	5.6016	31392
2	11879	5.60704	31428
2	11889	5.61248	31464
2	11899	5.61792	31500
2	11909	5.62336	31536
2	11919	5.6288	31572
2	11929	5.63424	31608
2	11939	5.63968	31644
2	11949	5.64512	31680
2	11965	5.65056	31716
2	11975	5.656	31752
2	11985	5.66144	31788
2	11995	5.66688	31824
2	12005	5.67232	31860
2	12015	5.67776	31896
2	12025	5.6832	31932
2	12035	5.68864	31968
2	12045	5.69408	32004
2	12055	5.69952	32040
2	12077	5.70496	32076
2	12087	5.7104	32112
2	12097	5.71584	32148
2	12107	5.72128	32184
2	12117	5.72672	32220
2	12127	5.73216	32256
2	12137	5.7376	32292
2	12147	5.74304	32328
2	12157	5.74848	32364
2	12173	5.75392	32400
2	12394	5.764	32436
2	12404	5.76944	32472
2	12414	5.77488	32508
2	12424	5.78032	32544
2	12434	5.78576	32580
2	12444	5.7912	32616
2	12454	5.79664	32652
2	12476	5.80208	32688
2	12486	5.80752	32724
2	12496	5.81296	32760
2	12506	5.8184	32796
2	12516	5.82384	32832
2	12526	5.82928	32868
2	12536	5.83472	32904
2	12546	5.84016	32940
2	12556	5.8456	32976
2	12572	5.85104	33012
2	12582	5.85648	33048
2	12592	5.86192	33084
2	12602	5.86736	33120
2	12612	5.8728	33156
2	12622	5.87824	33192
2	12632	5.88368	33228
2	12642	5.88912	33264
2	12652	5.89456	33300
2	12675	5.9	33336
2	12686	5.90544	33372
2	12696	5.91088	33408
2	12706	5.91632	33444
2	12716	5.92176	33480
2	12726	5.9272	33516
2	12736	5.93264	33552
2	12746	5.93808	33588
2	12756	5.94352	33624
2	12766	5.94896	33660
2	12782	5.9544	33696
2	12792	5.95984	33732
2	12802	5.96528	33768
2	12812	5.97072	33804
2	12822	5.97616	33840
2	12832	5.9816	33876
2	12842	5.98704	33912
2	12852	5.99248	33948
2	12862	5.99792	33984
2	12884	6.00336	34020
2	12894	6.0088	34056
2	12904	6.01424	34092
2	12914	6.01968	34128
2	12924	6.02512	34164
2	12934	6.03056	34200
2	12944	6.036	34236
2	12954	6.04144	34272
2	12964	6.04688	34308
2	12980	6.05232	34344
2	12990	6.05776	34380
2	13000	6.0632	34416
2	13010	6.06864	34452
2	13020	6.07408	34488
2	13030	6.07952	34524
2	13040	6.08496	34560
2	13050	6.0904	34596
2	13060	6.09584	34632
2	13082	6.10128	34668
2	13092	6.10672	34704
2	13102	6.11216	34740
2	13112	6.1176	34776
2	13122	6.12304	34812
2	13132	6.12848	34848
2	13142	6.13392	34884
2	13152	6.13936	34920
2	13162	6.1448	34956
2	13178	6.15024	34992
2	13188	6.15568	35028
2	13198	6.16112	35064
2	13208	6.16656	35100
2	13218	6.172	35136
2	13228	6.17744	35172
2	13238	6.18288	35208
2	13248	6.18832	35244
2	13258	6.19376	35280
2	13268	6.1992	35316
2	13290	6.20464	35352
2	13300	6.21008	35388
2	13310	6.21552	35424
2	13320	6.22096	35460
2	13330	6.2264	35496
2	13340	6.23184	35532
2	13350	6.23728	35568
2	13360	6.24272	35604
2	13370	6.24816	35640
2	13386	6.2536	35676
2	13396	6.25904	35712
2	13406	6.26448	35748
2	13416	6.26992	35784
2	13426	6.27536	35820
2	13436	6.2808	35856
2	13446	6.28624	35892
2	13456	6.29168	35928
2	13466	6.29712	35964
2	13488	6.30256	36000
2	13709	6.31264	36036
2	13719	6.31808	36072
2	13729	6.32352	36108
2	13739	6.32896	36144
2	13749	6.3344	36180
2	13759	6.33984	36216
2	13769	6.34528	36252
2	13785	6.35072	36288
2	13795	6.35616	36324
2	13805	6.3616	36360
2	13815	6.36704	36396
2	13825	6.37248	36432
2	13835	6.37792	36468
2	13845	6.38336	36504
2	13855	6.3888	36540
2	13865	6.39424	36576
2	13875	6.39968	36612
2	13897	6.40512	36648
2	13907	6.41056	36684
2	13917	6.416	36720
2	13927	6.42144	36756
2	13937	6.42688	36792
2	13947	6.43232	36828
2	13957	6.43776	36864
2	13967	6.4432	36900
2	13977	6.44864	36936
2	13995	6.45408	36972
2	14005	6.45952	37008
2	14015	6.46496	37044
2	14025	6.4704	37080
2	14035	6.47584	37116
2	14045	6.48128	37152
2	14055	6.48672	37188
2	14065	6.49216	37224
2	14075	6.4976	37260
2	14097	6.50304	37296
2	14107	6.50848	37332
2	14117	6.51392	37368
2	14127	6.51936	37404
2	14137	6.5248	37440
2	14147	6.53024	37476
2	14157	6.53568	37512
2	14167	6.54112	37548
2	14177	6.54656	37584
2	14193	6.552	37620
2	14203	6.55744	37656
2	14213	6.56288	37692
2	14223	6.56832	37728
2	14233	6.57376	37764
2	14243	6.5792	37800
2	14253	6.58464	37836
2	14263	6.59008	37872
2	14273	6.59552	37908
2	14295	6.60096	37944
2	14305	6.6064	37980
2	14315	6.61184	38016
2	14325	6.61728	38052
2	14335	6.62272	38088
2	14345	6.62816	38124
2	14355	6.6336	38160
2	14365	6.63904	38196
2	14375	6.64448	38232
2	14385	6.64992	38268
2	14401	6.65536	38304
2	14411	6.6608	38340
2	14421	6.66624	38376
2	14431	6.67168	38412
2	14441	6.67712	38448
2	14451	6.68256	38484
2	14461	6.688	38520
2	14471	6.69344	38556
2	14481	6.69888	38592
2	14503	6.70432	38628
2	14513	6.70976	38664
2	14523	6.7152	38700
2	14533	6.72064	38736
2	14543	6.72608	38772
2	14553	6.73152	38808
2	14563	6.73696	38844
2	14573	6.7424	38880
2	14583	6.74784	38916
2	14599	6.75328	38952
2	14609	6.75872	38988
2	14619	6.76416	39024
2	14629	6.7696	39060
2	14639	6.77504	39096
2	14649	6.78048	39132
2	14659	6.78592	39168
2	14669	6.79136	39204
2	14679	6.7968	39240
2	14701	6.80224	39276
2	14711	6.80768	39312
2	14721	6.81312	39348
2	14731	6.81856	39384
2	14741	6.824	39420
2	14751	6.82944	39456
2	14761	6.83488	39492
2	14771	6.84032	39528
2	14781	6.84576	39564
2	14797	6.8512	39600
2	15018	6.86128	39636
2	15028	6.86672	39672
2	15038	6.87216	39708
2	15048	6.8776	39744
2	15058	6.88304	39780
2	15068	6.88848	39816
2	15078	6.89392	39852
2	15088	6.89936	39888
2	15110	6.9048	39924
2	15120	6.91024	39960
2	15130	6.91568	39996
2	15140	6.92112	40032
2	15150	6.92656	40068
2	15160	6.932	40104
2	15170	6.93744	40140
2	15180	6.94288	40176
2	15190	6.94832	40212
2	15206	6.95376	40248
2	15216	6.9592	40284
2	15226	6.96464	40320
2	15236	6.97008	40356
2	15246	6.97552	40392
2	15256	6.98096	40428
2	15266	6.9864	40464
2	15276	6.99184	40500
2	15286	6.99728	40536
2	15310	7.00272	40572
2	15320	7.00816	40608
2	15330	7.0136	40644
2	15340	7.01904	40680
2	15350	7.02448	40716
2	15360	7.02992	40752
2	15370	7.03536	40788
2	15380	7.0408	40824
2	15390	7.04624	40860
2	15406	7.05168	40896
2	15416	7.05712	40932
2	15426	7.06256	40968
2	15436	7.068	41004
2	15446	7.07344	41040
2	15456	7.07888	41076
2	15466	7.08432	41112
2	15476	7.08976	41148
2	15486	7.0952	41184
2	15508	7.10064	41220
2	15518	7.10608	41256
2	15528	7.11152	41292
2	15538	7.11696	41328
2	15548	7.1224	41364
2	15558	7.12784	41400
2	15568	7.13328	41436
2	15578	7.13872	41472
2	15588	7.14416	41508
2	15598	7.1496	41544
2	15614	7.15504	41580
2	15624	7.16048	41616
2	15634	7.16592	41652
2	15644	7.17136	41688
2	15654	7.1768	41724
2	15664	7.18224	41760
2	15674	7.18768	41796
2	15684	7.19312	41832
2	15694	7.19856	41868
2	15716	7.204	41904
2	15726	7.20944	41940
2	15736	7.21488	41976
2	15746	7.22032	42012
2	15756	7.22576	42048
2	15766	7.2312	42084
2	15776	7.23664	42120
2	15786	7.24208	42156
2	15796	7.24752	42192
2	15812	7.25296	42228
2	15822	7.2584	42264
2	15832	7.26384	42300
2	15842	7.26928	42336
2	15852	7.27472	42372
2	15862	7.28016	42408
2	15872	7.2856	42444
2	15882	7.29104	42480
2	15892	7.29648	42516
2	15914	7.30192	42552
2	15924	7.30736	42588
2	15934	7.3128	42624
2	15944	7.31824	42660
2	15954	7.32368	42696
2	15964	7.32912	42732
2	15974	7.33456	42768
2	15984	7.34	42804
2	15994	7.34544	42840
2	16010	7.35088	42876
2	16020	7.35632	42912
2	16030	7.36176	42948
2	16040	7.3672	42984
2	16050	7.37264	43020
2	16060	7.37808	43056
2	16070	7.38352	43092
2	16080	7.38896	43128
2	16090	7.3944	43164
2	16100	7.39984	43200
2	16333	7.40992	43236
2	16343	7.41536	43272
2	16353	7.4208	43308
2	16363	7.42624	43344
2	16373	7.43168	43380
2	16383	7.43712	43416
2	16393	7.44256	43452
2	16403	7.448	43488
2	16419	7.45344	43524
2	16429	7.45888	43560
2	16439	7.46432	43596
2	16449	7.46976	43632
2	16459	7.4752	43668
2	16469	7.48064	43704
2	16479	7.48608	43740
2	16489	7.49152	43776
2	16499	7.49696	43812
2	16521	7.5024	43848
2	16531	7.50784	43884
2	16541	7.51328	43920
2	16551	7.51872	43956
2	16561	7.52416	43992
2	16571	7.5296	44028
2	16581	7.53504	44064
2	16591	7.54048	44100
2	16601	7.54592	44136
2	16619	7.55136	44172
2	16629	7.5568	44208
2	16639	7.56224	44244
2	16649	7.56768	44280
2	16659	7.57312	44316
2	16669	7.57856	44352
2	16679	7.584	44388
2	16689	7.58944	44424
2	16699	7.59488	44460
2	16721	7.60032	44496
2	16731	7.60576	44532
2	16741	7.6112	44568
2	16751	7.61664	44604
2	16761	7.62208	44640
2	16771	7.62752	44676
2	16781	7.63296	44712
2	16791	7.6384	44748
2	16801	7.64384	44784
2	16811	7.64928	44820
2	16827	7.65472	44856
2	16837	7.66016	44892
2	16847	7.6656	44928
2	16857	7.67104	44964
2	16867	7.67648	45000
2	16877	7.68192	45036
2	16887	7.68736	45072
2	16897	7.6928	45108
2	16907	7.69824	45144
2	16929	7.70368	45180
2	16939	7.70912	45216
2	16949	7.71456	45252
2	16959	7.72	45288
2	16969	7.72544	45324
2	16979	7.73088	45360
2	16989	7.73632	45396
2	16999	7.74176	45432
2	17009	7.7472	45468
2	17025	7.75264	45504
2	17035	7.75808	45540
2	17045	7.76352	45576
2	17055	7.76896	45612
2	17065	7.7744	45648
2	17075	7.77984	45684
2	17085	7.78528	45720
2	17095	7.79072	45756
2	17105	7.79616	45792
2	17127	7.8016	45828
2	17137	7.80704	45864
2	17147	7.81248	45900
2	17157	7.81792	45936
2	17167	7.82336	45972
2	17177	7.8288	46008
2	17187	7.83424	46044
2	17197	7.83968	46080
2	17207	7.84512	46116
2	17223	7.85056	46152
2	17233	7.856	46188
2	17243	7.86144	46224
2	17253	7.86688	46260
2	17263	7.87232	46296
2	17273	7.87776	46332
2	17283	7.8832	46368
2	17293	7.88864	46404
2	17303	7.89408	46440
2	17313	7.89952	46476
2	17335	7.90496	46512
2	17345	7.9104	46548
2	17355	7.91584	46584
2	17365	7.92128	46620
2	17375	7.92672	46656
2	17385	7.93216	46692
2	17395	7.9376	46728
2	17405	7.94304	46764
2	17415	7.94848	46800
2	17642	7.95856	46836
2	17652	7.964	46872
2	17662	7.96944	46908
2	17672	7.97488	46944
2	17682	7.98032	46980
2	17692	7.98576	47016
2	17702	7.9912	47052
2	17712	7.99664	47088
2	17734	8.00208	47124
2	17744	8.00752	47160
2	17754	8.01296	47196
2	17764	8.0184	47232
2	17774	8.02384	47268
2	17784	8.02928	47304
2	17794	8.03472	47340
2	17804	8.04016	47376
2	17814	8.0456	47412
2	17830	8.05104	47448
2	17840	8.05648	47484
2	17850	8.06192	47520
2	17860	8.06736	47556
2	17870	8.0728	47592
2	17880	8.07824	47628
2	17890	8.08368	47664
2	17900	8.08912	47700
2	17910	8.09456	47736
2	17933	8.1	47772
2	17944	8.10544	47808
2	17954	8.11088	47844
2	17964	8.11632	47880
2	17974	8.12176	47916
2	17984	8.1272	47952
2	17994	8.13264	47988
2	18004	8.13808	48024
2	18014	8.14352	48060
2	18024	8.14896	48096
2	18040	8.1544	48132
2	18050	8.15984	48168
2	18060	8.16528	48204
2	18070	8.17072	48240
2	18080	8.17616	48276
2	18090	8.1816	48312
2	18100	8.18704	48348
2	18110	8.19248	48384
2	18120	8.19792	48420
2	18142	8.20336	48456
2	18152	8.2088	48492
2	18162	8.21424	48528
2	18172	8.21968	48564
2	18182	8.22512	48600
2	18192	8.23056	48636
2	18202	8.236	48672
2	18212	8.24144	48708
2	18222	8.24688	48744
2	18238	8.25232	48780
2	18248	8.25776	48816
2	18258	8.2632	48852
2	18268	8.26864	48888
2	18278	8.27408	48924
2	18288	8.27952	48960
2	18298	8.28496	48996
2	18308	8.2904	49032
2	18318	8.29584	49068
2	18340	8.30128	49104
2	18350	8.30672	49140
2	18360	8.31216	49176
2	18370	8.3176	49212
2	18380	8.32304	49248
2	18390	8.32848	49284
2	18400	8.33392	49320
2	18410	8.33936	49356
2	18420	8.3448	49392
2	18436	8.35024	49428
2	18446	8.35568	49464
2	18456	8.36112	49500
2	18466	8.36656	49536
2	18476	8.372	49572
2	18486	8.37744	49608
2	18496	8.38288	49644
2	18506	8.38832	49680
2	18516	8.39376	49716
2	18526	8.3992	49752
2	18548	8.40464	49788
2	18558	8.41008	49824
2	18568	8.41552	49860
2	18578	8.42096	49896
2	18588	8.4264	49932
2	18598	8.43184	49968
2	18608	8.43728	50004
2	18618	8.44272	50040
2	18628	8.44816	50076
2	18644	8.4536	50112
2	18654	8.45904	50148
2	18664	8.46448	50184
2	18674	8.46992	50220
2	18684	8.47536	50256
2	18694	8.4808	50292
2	18704	8.48624	50328
2	18714	8.49168	50364
2	18724	8.49712	50400
2	18957	8.5072	50436
2	18967	8.51264	50472
2	18977	8.51808	50508
2	18987	8.52352	50544
2	18997	8.52896	50580
2	19007	8.5344	50616
2	19017	8.53984	50652
2	19027	8.54528	50688
2	19043	8.55072	50724
2	19053	8.55616	50760
2	19063	8.5616	50796
2	19073	8.56704	50832
2	19083	8.57248	50868
2	19093	8.57792	50904
2	19103	8.58336	50940
2	19113	8.5888	50976
2	19123	8.59424	51012
2	19133	8.59968	51048
2	19155	8.60512	51084
2	19165	8.61056	51120
2	19175	8.616	51156
2	19185	8.62144	51192
2	19195	8.62688	51228
2	19205	8.63232	51264
2	19215	8.63776	51300
2	19225	8.6432	51336
2	19235	8.64864	51372
2	19253	8.65408	51408
2	19263	8.65952	51444
2	19273	8.66496	51480
2	19283	8.6704	51516
2	19293	8.67584	51552
2	19303	8.68128	51588
2	19313	8.68672	51624
2	19323	8.69216	51660
2	19333	8.6976	51696
2	19355	8.70304	51732
2	19365	8.70848	51768
2	19375	8.71392	51804
2	19385	8.71936	51840
2	19395	8.7248	51876
2	19405	8.73024	51912
2	19415	8.73568	51948
2	19425	8.74112	51984
2	19435	8.74656	52020
2	19451	8.752	52056
2	19461	8.75744	52092
2	19471	8.76288	52128
2	19481	8.76832	52164
2	19491	8.77376	52200
2	19501	8.7792	52236
2	19511	8.78464	52272
2	19521	8.79008	52308
2	19531	8.79552	52344
2	19553	8.80096	52380
2	19563	8.8064	52416
2	19573	8.81184	52452
2	19583	8.81728	52488
2	19593	8.82272	52524
2	19603	8.82816	52560
2	19613	8.8336	52596
2	19623	8.83904	52632
2	19633	8.84448	52668
2	19643	8.84992	52704
2	19659	8.85536	52740
2	19669	8.8608	52776
2	19679	8.86624	52812
2	19689	8.87168	52848
2	19699	8.87712	52884
2	19709	8.88256	52920
2	19719	8.888	52956
2	19729	8.89344	52992
2	19739	8.89888	53028
2	19761	8.90432	53064
2	19771	8.90976	53100
2	19781	8.9152	53136
2	19791	8.92064	53172
2	19801	8.92608	53208
2	19811	8.93152	53244
2	19821	8.93696	53280
2	19831	8.9424	53316
2	19841	8.94784	53352
2	19857	8.95328	53388
2	19867	8.95872	53424
2	19877	8.96416	53460
2	19887	8.9696	53496
2	19897	8.97504	53532
2	19907	8.98048	53568
2	19917	8.98592	53604
2	19927	8.99136	53640
2	19937	8.9968	53676
2	19959	9.00224	53712
2	19969	9.00768	53748
2	19979	9.01312	53784
2	19989	9.01856	53820
2	19999	9.024	53856
2	20009	9.02944	53892
2	20019	9.03488	53928
2	20029	9.04032	53964
2	20039	9.04576	54000
2	20266	9.05584	54036
2	20276	9.06128	54072
2	20286	9.06672	54108
2	20296	9.07216	54144
2	20306	9.0776	54180
2	20316	9.08304	54216
2	20326	9.08848	54252
2	20336	9.09392	54288
2	20346	9.09936	54324
2	20368	9.1048	54360
2	20378	9.11024	54396
2	20388	9.11568	54432
2	20398	9.12112	54468
2	20408	9.12656	54504
2	20418	9.132	54540
2	20428	9.13744	54576
2	20438	9.14288	54612
2	20448	9.14832	54648
2	20464	9.15376	54684
2	20474	9.1592	54720
2	20484	9.16464	54756
2	20494	9.17008	54792
2	20504	9.17552	54828
2	20514	9.18096	54864
2	20524	9.1864	54900
2	20534	9.19184	54936
2	20544	9.19728	54972
2	20568	9.20272	55008
2	20578	9.20816	55044
2	20588	9.2136	55080
2	20598	9.21904	55116
2	20608	9.22448	55152
2	20618	9.22992	55188
2	20628	9.23536	55224
2	20638	9.2408	55260
2	20648	9.24624	55296
2	20664	9.25168	55332
2	20674	9.25712	55368
2	20684	9.26256	55404
2	20694	9.268	55440
2	20704	9.27344	55476
2	20714	9.27888	55512
2	20724	9.28432	55548
2	20734	9.28976	55584
2	20744	9.2952	55620
2	20766	9.30064	55656
2	20776	9.30608	55692
2	20786	9.31152	55728
2	20796	9.31696	55764
2	20806	9.3224	55800
2	20816	9.32784	55836
2	20826	9.33328	55872
2	20836	9.33872	55908
2	20846	9.34416	55944
2	20856	9.3496	55980
2	20872	9.35504	56016
2	20882	9.36048	56052
2	20892	9.36592	56088
2	20902	9.37136	56124
2	20912	9.3768	56160
2	20922	9.38224	56196
2	20932	9.38768	56232
2	20942	9.39312	56268
2	20952	9.39856	56304
2	20974	9.404	56340
2	20984	9.40944	56376
2	20994	9.41488	56412
2	21004	9.42032	56448
2	21014	9.42576	56484
2	21024	9.4312	56520
2	21034	9.43664	56556
2	21044	9.44208	56592
2	21054	9.44752	56628
2	21070	9.45296	56664
2	21080	9.4584	56700
2	21090	9.46384	56736
2	21100	9.46928	56772
2	21110	9.47472	56808
2	21120	9.48016	56844
2	21130	9.4856	56880
2	21140	9.49104	56916
2	21150	9.49648	56952
2	21172	9.50192	56988
2	21182	9.50736	57024
2	21192	9.5128	57060
2	21202	9.51824	57096
2	21212	9.52368	57132
2	21222	9.52912	57168
2	21232	9.53456	57204
2	21242	9.54	57240
2	21252	9.54544	57276
2	21268	9.55088	57312
2	21278	9.55632	57348
2	21288	9.56176	57384
2	21298	9.5672	57420
2	21308	9.57264	57456
2	21318	9.57808	57492
2	21328	9.58352	57528
2	21338	9.58896	57564
2	21348	9.5944	57600
2	21581	9.60448	57636
2	21591	9.60992	57672
2	21601	9.61536	57708
2	21611	9.6208	57744
2	21621	9.62624	57780
2	21631	9.63168	57816
2	21641	9.63712	57852
2	21651	9.64256	57888
2	21661	9.648	57924
2	21677	9.65344	57960
2	21687	9.65888	57996
2	21697	9.66432	58032
2	21707	9.66976	58068
2	21717	9.6752	58104
2	21727	9.68064	58140
2	21737	9.68608	58176
2	21747	9.69152	58212
2	21757	9.69696	58248
2	21779	9.7024	58284
2	21789	9.70784	58320
2	21799	9.71328	58356
2	21809	9.71872	58392
2	21819	9.72416	58428
2	21829	9.7296	58464
2	21839	9.73504	58500
2	21849	9.74048	58536
2	21859	9.74592	58572
2	21877	9.75136	58608
2	21887	9.7568	58644
2	21897	9.76224	58680
2	21907	9.76768	58716
2	21917	9.77312	58752
2	21927	9.77856	58788
2	21937	9.784	58824
2	21947	9.78944	58860
2	21957	9.79488	58896
2	21979	9.80032	58932
2	21989	9.80576	58968
2	21999	9.8112	59004
2	22009	9.81664	59040
2	22019	9.82208	59076
2	22029	9.82752	59112
2	22039	9.83296	59148
2	22049	9.8384	59184
2	22059	9.84384	59220
2	22069	9.84928	59256
2	22085	9.85472	59292
2	22095	9.86016	59328
2	22105	9.8656	59364
2	22115	9.87104	59400
2	22125	9.87648	59436
2	22135	9.88192	59472
2	22145	9.88736	59508
2	22155	9.8928	59544
2	22165	9.89824	59580
2	22187	9.90368	59616
2	22197	9.90912	59652
2	22207	9.91456	59688
2	22217	9.92	59724
2	22227	9.92544	59760
2	22237	9.93088	59796
2	22247	9.93632	59832
2	22257	9.94176	59868
2	22267	9.9472	59904
2	22283	9.95264	59940
2	22293	9.95808	59976
2	22303	9.96352	60012
2	22313	9.96896	60048
2	22323	9.9744	60084
2	22333	9.97984	60120
2	22343	9.98528	60156
2	22353	9.99072	60192
2	22363	9.99616	60228
3	634	1.11456	36
3	644	1.12	72
3	654	1.12544	108
3	664	1.13088	144
3	674	1.13632	180
3	684	1.14176	216
3	694	1.1472	252
3	710	1.15264	288
3	720	1.15808	324
3	730	1.16352	360
3	740	1.16896	396
3	750	1.1744	432
3	760	1.17984	468
3	770	1.18528	504
3	780	1.19072	540
3	790	1.19616	576
3	812	1.2016	612
3	822	1.20704	648
3	832	1.21248	684
3	842	1.21792	720
3	852	1.22336	756
3	862	1.2288	792
3	872	1.23424	828
3	882	1.23968	864
3	892	1.24512	900
3	908	1.25056	936
3	918	1.256	972
3	928	1.26144	1008
3	938	1.26688	1044
3	948	1.27232	1080
3	958	1.27776	1116
3	968	1.2832	1152
3	978	1.28864	1188
3	988	1.29408	1224
3	998	1.29952	1260
3	1020	1.30496	1296
3	1030	1.3104	1332
3	1040	1.31584	1368
3	1050	1.32128	1404
3	1060	1.32672	1440
3	1070	1.33216	1476
3	1080	1.3376	1512
3	1090	1.34304	1548
3	1100	1.34848	1584
3	1120	1.35392	1620
3	1137	1.35936	1656
3	1147	1.3648	1692
3	1157	1.37024	1728
3	1167	1.37568	1764
3	1177	1.38112	1800
3	1187	1.38656	1836
3	1197	1.392	1872
3	1207	1.39744	1908
3	1229	1.40288	1944
3	1239	1.40832	1980
3	1249	1.41376	2016
3	1259	1.4192	2052
3	1269	1.42464	2088
3	1279	1.43008	2124
3	1289	1.43552	2160
3	1299	1.44096	2196
3	1309	1.4464	2232
3	1325	1.45184	2268
3	1335	1.45728	2304
3	1345	1.46272	2340
3	1355	1.46816	2376
3	1365	1.4736	2412
3	1375	1.47904	2448
3	1385	1.48448	2484
3	1395	1.48992	2520
3	1405	1.49536	2556
3	1427	1.5008	2592
3	1437	1.50624	2628
3	1447	1.51168	2664
3	1457	1.51712	2700
3	1467	1.52256	2736
3	1477	1.528	2772
3	1487	1.53344	2808
3	1497	1.53888	2844
3	1507	1.54432	2880
3	1517	1.54976	2916
3	1535	1.5552	2952
3	1545	1.56064	2988
3	1555	1.56608	3024
3	1565	1.57152	3060
3	1575	1.57696	3096
3	1585	1.5824	3132
3	1595	1.58784	3168
3	1605	1.59328	3204
3	1615	1.59872	3240
3	1637	1.60416	3276
3	1647	1.6096	3312
3	1657	1.61504	3348
3	1667	1.62048	3384
3	1677	1.62592	3420
3	1687	1.63136	3456
3	1697	1.6368	3492
3	1707	1.64224	3528
3	1717	1.64768	3564
3	1733	1.65312	3600
3	2165	1.66768	3636
3	2171	1.67216	3672
3	2177	1.67312	3708
3	2183	1.6776	3744
3	2189	1.67856	3780
3	2195	1.68304	3816
3	2201	1.684	3852
3	2207	1.68848	3888
3	2213	1.68944	3924
3	2219	1.69392	3960
3	2225	1.69488	3996
3	2231	1.69936	4032
3	2249	1.70032	4068
3	2255	1.7048	4104
3	2261	1.70576	4140
3	2267	1.71024	4176
3	2273	1.7112	4212
3	2279	1.71568	4248
3	2285	1.71664	4284
3	2291	1.72112	4320
3	2297	1.72208	4356
3	2303	1.72656	4392
3	2309	1.72752	4428
3	2315	1.732	4464
3	2321	1.73296	4500
3	2327	1.73744	4536
3	2333	1.7384	4572
3	2339	1.74288	4608
3	2345	1.74384	4644
3	2351	1.74832	4680
3	2357	1.74928	4716
3	2369	1.75376	4752
3	2375	1.75472	4788
3	2381	1.7592	4824
3	2387	1.76016	4860
3	2393	1.76464	4896
3	2399	1.7656	4932
3	2405	1.77008	4968
3	2411	1.77104	5004
3	2417	1.77552	5040
3	2423	1.77648	5076
3	2429	1.78096	5112
3	2435	1.78192	5148
3	2441	1.7864	5184
3	2447	1.78736	5220
3	2453	1.79184	5256
3	2459	1.7928	5292
3	2465	1.79728	5328
3	2471	1.79824	5364
3	2491	1.80272	5400
3	2497	1.80368	5436
3	2503	1.80816	5472
3	2509	1.80912	5508
3	2515	1.8136	5544
3	2521	1.81456	5580
3	2527	1.81904	5616
3	2533	1.82	5652
3	2539	1.82448	5688
3	2545	1.82544	5724
3	2551	1.82992	5760
3	2557	1.83088	5796
3	2563	1.83536	5832
3	2569	1.83632	5868
3	2575	1.8408	5904
3	2581	1.84176	5940
3	2587	1.84624	5976
3	2593	1.8472	6012
3	2605	1.85168	6048
3	2611	1.85264	6084
3	2617	1.85712	6120
3	2623	1.85808	6156
3	2629	1.86256	6192
3	2635	1.86352	6228
3	2641	1.868	6264
3	2647	1.86896	6300
3	2653	1.87344	6336
3	2659	1.8744	6372
3	2665	1.87888	6408
3	2671	1.87984	6444
3	2677	1.88432	6480
3	2683	1.88528	6516
3	2689	1.88976	6552
3	2695	1.89072	6588
3	2701	1.8952	6624
3	2707	1.89616	6660
3	2725	1.90064	6696
3	2731	1.9016	6732
3	2737	1.90608	6768
3	2743	1.90704	6804
3	2749	1.91152	6840
3	2755	1.91248	6876
3	2761	1.91696	6912
3	2767	1.91792	6948
3	2773	1.9224	6984
3	2779	1.92336	7020
3	2785	1.92784	7056
3	2791	1.9288	7092
3	2797	1.93328	7128
3	2803	1.93424	7164
3	2809	1.93872	7200
3	2815	1.93968	7236
3	2821	1.94416	7272
3	2827	1.94512	7308
3	2833	1.9496	7344
3	2845	1.95056	7380
3	2851	1.95504	7416
3	2857	1.956	7452
3	2863	1.96048	7488
3	2869	1.96144	7524
3	2875	1.96592	7560
3	2881	1.96688	7596
3	2887	1.97136	7632
3	2893	1.97232	7668
3	2899	1.9768	7704
3	2905	1.97776	7740
3	2911	1.98224	7776
3	2917	1.9832	7812
3	2923	1.98768	7848
3	2929	1.98864	7884
3	2935	1.99312	7920
3	2941	1.99408	7956
3	2947	1.99856	7992
3	2953	1.99952	8028
3	2971	2.004	8064
3	2977	2.00496	8100
3	2983	2.00944	8136
3	2989	2.0104	8172
3	2995	2.01488	8208
3	3001	2.01584	8244
3	3007	2.02032	8280
3	3013	2.02128	8316
3	3019	2.02576	8352
3	3025	2.02672	8388
3	3031	2.0312	8424
3	3037	2.03216	8460
3	3043	2.03664	8496
3	3049	2.0376	8532
3	3055	2.04208	8568
3	3061	2.04304	8604
3	3067	2.04752	8640
3	3073	2.04848	8676
3	3085	2.05296	8712
3	3091	2.05392	8748
3	3097	2.0584	8784
3	3103	2.05936	8820
3	3109	2.06384	8856
3	3115	2.0648	8892
3	3121	2.06928	8928
3	3127	2.07024	8964
3	3133	2.07472	9000
3	3139	2.07568	9036
3	3145	2.08016	9072
3	3151	2.08112	9108
3	3157	2.0856	9144
3	3163	2.08656	9180
3	3169	2.09104	9216
3	3175	2.092	9252
3	3181	2.09648	9288
3	3187	2.09744	9324
3	3205	2.10192	9360
3	3211	2.10288	9396
3	3217	2.10736	9432
3	3223	2.10832	9468
3	3229	2.1128	9504
3	3235	2.11376	9540
3	3241	2.11824	9576
3	3247	2.1192	9612
3	3253	2.12368	9648
3	3259	2.12464	9684
3	3265	2.12912	9720
3	3271	2.13008	9756
3	3277	2.13456	9792
3	3283	2.13552	9828
3	3289	2.14	9864
3	3295	2.14096	9900
3	3301	2.14544	9936
3	3307	2.1464	9972
3	3319	2.15088	10008
3	3325	2.15184	10044
3	3331	2.15632	10080
3	3337	2.15728	10116
3	3343	2.16176	10152
3	3349	2.16272	10188
3	3355	2.1672	10224
3	3361	2.16816	10260
3	3367	2.17264	10296
3	3373	2.1736	10332
3	3379	2.17808	10368
3	3385	2.17904	10404
3	3391	2.18352	10440
3	3397	2.18448	10476
3	3403	2.18896	10512
3	3409	2.18992	10548
3	3415	2.1944	10584
3	3421	2.19536	10620
3	3427	2.19984	10656
3	3445	2.2008	10692
3	3451	2.20528	10728
3	3457	2.20624	10764
3	3463	2.21072	10800
3	4524	2.47216	10836
3	4534	2.4776	10872
3	4544	2.48304	10908
3	4554	2.48848	10944
3	4564	2.49392	10980
3	4574	2.49936	11016
3	4596	2.5048	11052
3	4606	2.51024	11088
3	4616	2.51568	11124
3	4626	2.52112	11160
3	4636	2.52656	11196
3	4646	2.532	11232
3	4656	2.53744	11268
3	4666	2.54288	11304
3	4676	2.54832	11340
3	4692	2.55376	11376
3	4702	2.5592	11412
3	4712	2.56464	11448
3	4722	2.57008	11484
3	4732	2.57552	11520
3	4742	2.58096	11556
3	4752	2.5864	11592
3	4762	2.59184	11628
3	4772	2.59728	11664
3	4794	2.60272	11700
3	4804	2.60816	11736
3	4814	2.6136	11772
3	4824	2.61904	11808
3	4834	2.62448	11844
3	4844	2.62992	11880
3	4854	2.63536	11916
3	4864	2.6408	11952
3	4874	2.64624	11988
3	4890	2.65168	12024
3	4900	2.65712	12060
3	4910	2.66256	12096
3	4920	2.668	12132
3	4930	2.67344	12168
3	4940	2.67888	12204
3	4950	2.68432	12240
3	4960	2.68976	12276
3	4970	2.6952	12312
3	4992	2.70064	12348
3	5002	2.70608	12384
3	5012	2.71152	12420
3	5022	2.71696	12456
3	5032	2.7224	12492
3	5042	2.72784	12528
3	5052	2.73328	12564
3	5062	2.73872	12600
3	5072	2.74416	12636
3	5082	2.7496	12672
3	5098	2.75504	12708
3	5108	2.76048	12744
3	5118	2.76592	12780
3	5128	2.77136	12816
3	5138	2.7768	12852
3	5148	2.78224	12888
3	5158	2.78768	12924
3	5168	2.79312	12960
3	5178	2.79856	12996
3	5200	2.804	13032
3	5210	2.80944	13068
3	5220	2.81488	13104
3	5230	2.82032	13140
3	5240	2.82576	13176
3	5250	2.8312	13212
3	5260	2.83664	13248
3	5270	2.84208	13284
3	5280	2.84752	13320
3	5296	2.85296	13356
3	5306	2.8584	13392
3	5316	2.86384	13428
3	5326	2.86928	13464
3	5336	2.87472	13500
3	5346	2.88016	13536
3	5356	2.8856	13572
3	5366	2.89104	13608
3	5376	2.89648	13644
3	5398	2.90192	13680
3	5408	2.90736	13716
3	5418	2.9128	13752
3	5428	2.91824	13788
3	5438	2.92368	13824
3	5448	2.92912	13860
3	5458	2.93456	13896
3	5468	2.94	13932
3	5478	2.94544	13968
3	5494	2.95088	14004
3	5504	2.95632	14040
3	5514	2.96176	14076
3	5524	2.9672	14112
3	5534	2.97264	14148
3	5544	2.97808	14184
3	5554	2.98352	14220
3	5564	2.98896	14256
3	5574	2.9944	14292
3	5584	2.99984	14328
3	5606	3.00528	14364
3	5616	3.01072	14400
3	5837	3.0208	14436
3	5847	3.02624	14472
3	5857	3.03168	14508
3	5867	3.03712	14544
3	5877	3.04256	14580
3	5887	3.048	14616
3	5903	3.05344	14652
3	5913	3.05888	14688
3	5923	3.06432	14724
3	5933	3.06976	14760
3	5943	3.0752	14796
3	5953	3.08064	14832
3	5963	3.08608	14868
3	5973	3.09152	14904
3	5983	3.09696	14940
3	6005	3.1024	14976
3	6015	3.10784	15012
3	6025	3.11328	15048
3	6035	3.11872	15084
3	6045	3.12416	15120
3	6055	3.1296	15156
3	6065	3.13504	15192
3	6075	3.14048	15228
3	6085	3.14592	15264
3	6103	3.15136	15300
3	6113	3.1568	15336
3	6123	3.16224	15372
3	6133	3.16768	15408
3	6143	3.17312	15444
3	6153	3.17856	15480
3	6163	3.184	15516
3	6173	3.18944	15552
3	6183	3.19488	15588
3	6205	3.20032	15624
3	6215	3.20576	15660
3	6225	3.2112	15696
3	6235	3.21664	15732
3	6245	3.22208	15768
3	6255	3.22752	15804
3	6265	3.23296	15840
3	6275	3.2384	15876
3	6285	3.24384	15912
3	6295	3.24928	15948
3	6311	3.25472	15984
3	6321	3.26016	16020
3	6331	3.2656	16056
3	6341	3.27104	16092
3	6351	3.27648	16128
3	6361	3.28192	16164
3	6371	3.28736	16200
3	6381	3.2928	16236
3	6391	3.29824	16272
3	6413	3.30368	16308
3	6423	3.30912	16344
3	6433	3.31456	16380
3	6443	3.32	16416
3	6453	3.32544	16452
3	6463	3.33088	16488
3	6473	3.33632	16524
3	6483	3.34176	16560
3	6493	3.3472	16596
3	6509	3.35264	16632
3	6519	3.35808	16668
3	6529	3.36352	16704
3	6539	3.36896	16740
3	6549	3.3744	16776
3	6559	3.37984	16812
3	6569	3.38528	16848
3	6579	3.39072	16884
3	6589	3.39616	16920
3	6611	3.4016	16956
3	6621	3.40704	16992
3	6631	3.41248	17028
3	6641	3.41792	17064
3	6651	3.42336	17100
3	6661	3.4288	17136
3	6671	3.43424	17172
3	6681	3.43968	17208
3	6691	3.44512	17244
3	6707	3.45056	17280
3	6717	3.456	17316
3	6727	3.46144	17352
3	6737	3.46688	17388
3	6747	3.47232	17424
3	6757	3.47776	17460
3	6767	3.4832	17496
3	6777	3.48864	17532
3	6787	3.49408	17568
3	6797	3.49952	17604
3	6819	3.50496	17640
3	6829	3.5104	17676
3	6839	3.51584	17712
3	6849	3.52128	17748
3	6859	3.52672	17784
3	6869	3.53216	17820
3	6879	3.5376	17856
3	6889	3.54304	17892
3	6899	3.54848	17928
3	6915	3.55392	17964
3	6925	3.55936	18000
3	7146	3.56944	18036
3	7156	3.57488	18072
3	7166	3.58032	18108
3	7176	3.58576	18144
3	7186	3.5912	18180
3	7196	3.59664	18216
3	7218	3.60208	18252
3	7228	3.60752	18288
3	7238	3.61296	18324
3	7248	3.6184	18360
3	7258	3.62384	18396
3	7268	3.62928	18432
3	7278	3.63472	18468
3	7288	3.64016	18504
3	7298	3.6456	18540
3	7314	3.65104	18576
3	7324	3.65648	18612
3	7334	3.66192	18648
3	7344	3.66736	18684
3	7354	3.6728	18720
3	7364	3.67824	18756
3	7374	3.68368	18792
3	7384	3.68912	18828
3	7394	3.69456	18864
3	7417	3.7	18900
3	7428	3.70544	18936
3	7438	3.71088	18972
3	7448	3.71632	19008
3	7458	3.72176	19044
3	7468	3.7272	19080
3	7478	3.73264	19116
3	7488	3.73808	19152
3	7498	3.74352	19188
3	7508	3.74896	19224
3	7524	3.7544	19260
3	7534	3.75984	19296
3	7544	3.76528	19332
3	7554	3.77072	19368
3	7564	3.77616	19404
3	7574	3.7816	19440
3	7584	3.78704	19476
3	7594	3.79248	19512
3	7604	3.79792	19548
3	7626	3.80336	19584
3	7636	3.8088	19620
3	7646	3.81424	19656
3	7656	3.81968	19692
3	7666	3.82512	19728
3	7676	3.83056	19764
3	7686	3.836	19800
3	7696	3.84144	19836
3	7706	3.84688	19872
3	7722	3.85232	19908
3	7732	3.85776	19944
3	7742	3.8632	19980
3	7752	3.86864	20016
3	7762	3.87408	20052
3	7772	3.87952	20088
3	7782	3.88496	20124
3	7792	3.8904	20160
3	7802	3.89584	20196
3	7824	3.90128	20232
3	7834	3.90672	20268
3	7844	3.91216	20304
3	7854	3.9176	20340
3	7864	3.92304	20376
3	7874	3.92848	20412
3	7884	3.93392	20448
3	7894	3.93936	20484
3	7904	3.9448	20520
3	7920	3.95024	20556
3	7930	3.95568	20592
3	7940	3.96112	20628
3	7950	3.96656	20664
3	7960	3.972	20700
3	7970	3.97744	20736
3	7980	3.98288	20772
3	7990	3.98832	20808
3	8000	3.99376	20844
3	8010	3.9992	20880
3	8032	4.00464	20916
3	8042	4.01008	20952
3	8052	4.01552	20988
3	8062	4.02096	21024
3	8072	4.0264	21060
3	8082	4.03184	21096
3	8092	4.03728	21132
3	8102	4.04272	21168
3	8112	4.04816	21204
3	8128	4.0536	21240
3	8138	4.05904	21276
3	8148	4.06448	21312
3	8158	4.06992	21348
3	8168	4.07536	21384
3	8178	4.0808	21420
3	8188	4.08624	21456
3	8198	4.09168	21492
3	8208	4.09712	21528
3	8230	4.10256	21564
3	8240	4.108	21600
3	8461	4.11808	21636
3	8471	4.12352	21672
3	8481	4.12896	21708
3	8491	4.1344	21744
3	8501	4.13984	21780
3	8511	4.14528	21816
3	8527	4.15072	21852
3	8537	4.15616	21888
3	8547	4.1616	21924
3	8557	4.16704	21960
3	8567	4.17248	21996
3	8577	4.17792	22032
3	8587	4.18336	22068
3	8597	4.1888	22104
3	8607	4.19424	22140
3	8617	4.19968	22176
3	8639	4.20512	22212
3	8649	4.21056	22248
3	8659	4.216	22284
3	8669	4.22144	22320
3	8679	4.22688	22356
3	8689	4.23232	22392
3	8699	4.23776	22428
3	8709	4.2432	22464
3	8719	4.24864	22500
3	8737	4.25408	22536
3	8747	4.25952	22572
3	8757	4.26496	22608
3	8767	4.2704	22644
3	8777	4.27584	22680
3	8787	4.28128	22716
3	8797	4.28672	22752
3	8807	4.29216	22788
3	8817	4.2976	22824
3	8839	4.30304	22860
3	8849	4.30848	22896
3	8859	4.31392	22932
3	8869	4.31936	22968
3	8879	4.3248	23004
3	8889	4.33024	23040
3	8899	4.33568	23076
3	8909	4.34112	23112
3	8919	4.34656	23148
3	8935	4.352	23184
3	8945	4.35744	23220
3	8955	4.36288	23256
3	8965	4.36832	23292
3	8975	4.37376	23328
3	8985	4.3792	23364
3	8995	4.38464	23400
3	9005	4.39008	23436
3	9015	4.39552	23472
3	9037	4.40096	23508
3	9047	4.4064	23544
3	9057	4.41184	23580
3	9067	4.41728	23616
3	9077	4.42272	23652
3	9087	4.42816	23688
3	9097	4.4336	23724
3	9107	4.43904	23760
3	9117	4.44448	23796
3	9127	4.44992	23832
3	9143	4.45536	23868
3	9153	4.4608	23904
3	9163	4.46624	23940
3	9173	4.47168	23976
3	9183	4.47712	24012
3	9193	4.48256	24048
3	9203	4.488	24084
3	9213	4.49344	24120
3	9223	4.49888	24156
3	9245	4.50432	24192
3	9255	4.50976	24228
3	9265	4.5152	24264
3	9275	4.52064	24300
3	9285	4.52608	24336
3	9295	4.53152	24372
3	9305	4.53696	24408
3	9315	4.5424	24444
3	9325	4.54784	24480
3	9341	4.55328	24516
3	9351	4.55872	24552
3	9361	4.56416	24588
3	9371	4.5696	24624
3	9381	4.57504	24660
3	9391	4.58048	24696
3	9401	4.58592	24732
3	9411	4.59136	24768
3	9421	4.5968	24804
3	9443	4.60224	24840
3	9453	4.60768	24876
3	9463	4.61312	24912
3	9473	4.61856	24948
3	9483	4.624	24984
3	9493	4.62944	25020
3	9503	4.63488	25056
3	9513	4.64032	25092
3	9523	4.64576	25128
3	9539	4.6512	25164
3	9549	4.65664	25200
3	9770	4.66672	25236
3	9780	4.67216	25272
3	9790	4.6776	25308
3	9800	4.68304	25344
3	9810	4.68848	25380
3	9820	4.69392	25416
3	9830	4.69936	25452
3	9852	4.7048	25488
3	9862	4.71024	25524
3	9872	4.71568	25560
3	9882	4.72112	25596
3	9892	4.72656	25632
3	9902	4.732	25668
3	9912	4.73744	25704
3	9922	4.74288	25740
3	9932	4.74832	25776
3	9948	4.75376	25812
3	9958	4.7592	25848
3	9968	4.76464	25884
3	9978	4.77008	25920
3	9988	4.77552	25956
3	9998	4.78096	25992
3	10008	4.7864	26028
3	10018	4.79184	26064
3	10028	4.79728	26100
3	10052	4.80272	26136
3	10062	4.80816	26172
3	10072	4.8136	26208
3	10082	4.81904	26244
3	10092	4.82448	26280
3	10102	4.82992	26316
3	10112	4.83536	26352
3	10122	4.8408	26388
3	10132	4.84624	26424
3	10148	4.85168	26460
3	10158	4.85712	26496
3	10168	4.86256	26532
3	10178	4.868	26568
3	10188	4.87344	26604
3	10198	4.87888	26640
3	10208	4.88432	26676
3	10218	4.88976	26712
3	10228	4.8952	26748
3	10250	4.90064	26784
3	10260	4.90608	26820
3	10270	4.91152	26856
3	10280	4.91696	26892
3	10290	4.9224	26928
3	10300	4.92784	26964
3	10310	4.93328	27000
3	10320	4.93872	27036
3	10330	4.94416	27072
3	10340	4.9496	27108
3	10356	4.95504	27144
3	10366	4.96048	27180
3	10376	4.96592	27216
3	10386	4.97136	27252
3	10396	4.9768	27288
3	10406	4.98224	27324
3	10416	4.98768	27360
3	10426	4.99312	27396
3	10436	4.99856	27432
3	10458	5.004	27468
3	10468	5.00944	27504
3	10478	5.01488	27540
3	10488	5.02032	27576
3	10498	5.02576	27612
3	10508	5.0312	27648
3	10518	5.03664	27684
3	10528	5.04208	27720
3	10538	5.04752	27756
3	10554	5.05296	27792
3	10564	5.0584	27828
3	10574	5.06384	27864
3	10584	5.06928	27900
3	10594	5.07472	27936
3	10604	5.08016	27972
3	10614	5.0856	28008
3	10624	5.09104	28044
3	10634	5.09648	28080
3	10656	5.10192	28116
3	10666	5.10736	28152
3	10676	5.1128	28188
3	10686	5.11824	28224
3	10696	5.12368	28260
3	10706	5.12912	28296
3	10716	5.13456	28332
3	10726	5.14	28368
3	10736	5.14544	28404
3	10752	5.15088	28440
3	10762	5.15632	28476
3	10772	5.16176	28512
3	10782	5.1672	28548
3	10792	5.17264	28584
3	10802	5.17808	28620
3	10812	5.18352	28656
3	10822	5.18896	28692
3	10832	5.1944	28728
3	10842	5.19984	28764
3	10864	5.20528	28800
3	11085	5.21536	28836
3	11095	5.2208	28872
3	11105	5.22624	28908
3	11115	5.23168	28944
3	11125	5.23712	28980
3	11135	5.24256	29016
3	11145	5.248	29052
3	11161	5.25344	29088
3	11171	5.25888	29124
3	11181	5.26432	29160
3	11191	5.26976	29196
3	11201	5.2752	29232
3	11211	5.28064	29268
3	11221	5.28608	29304
3	11231	5.29152	29340
3	11241	5.29696	29376
3	11263	5.3024	29412
3	11273	5.30784	29448
3	11283	5.31328	29484
3	11293	5.31872	29520
3	11303	5.32416	29556
3	11313	5.3296	29592
3	11323	5.33504	29628
3	11333	5.34048	29664
3	11343	5.34592	29700
3	11361	5.35136	29736
3	11371	5.3568	29772
3	11381	5.36224	29808
3	11391	5.36768	29844
3	11401	5.37312	29880
3	11411	5.37856	29916
3	11421	5.384	29952
3	11431	5.38944	29988
3	11441	5.39488	30024
3	11463	5.40032	30060
3	11473	5.40576	30096
3	11483	5.4112	30132
3	11493	5.41664	30168
3	11503	5.42208	30204
3	11513	5.42752	30240
3	11523	5.43296	30276
3	11533	5.4384	30312
3	11543	5.44384	30348
3	11553	5.44928	30384
3	11569	5.45472	30420
3	11579	5.46016	30456
3	11589	5.4656	30492
3	11599	5.47104	30528
3	11609	5.47648	30564
3	11619	5.48192	30600
3	11629	5.48736	30636
3	11639	5.4928	30672
3	11649	5.49824	30708
3	11671	5.50368	30744
3	11681	5.50912	30780
3	11691	5.51456	30816
3	11701	5.52	30852
3	11711	5.52544	30888
3	11721	5.53088	30924
3	11731	5.53632	30960
3	11741	5.54176	30996
3	11751	5.5472	31032
3	11767	5.55264	31068
3	11777	5.55808	31104
3	11787	5.56352	31140
3	11797	5.56896	31176
3	11807	5.5744	31212
3	11817	5.57984	31248
3	11827	5.58528	31284
3	11837	5.59072	31320
3	11847	5.59616	31356
3	11869	5.6016	31392
3	11879	5.60704	31428
3	11889	5.61248	31464
3	11899	5.61792	31500
3	11909	5.62336	31536
3	11919	5.6288	31572
3	11929	5.63424	31608
3	11939	5.63968	31644
3	11949	5.64512	31680
3	11965	5.65056	31716
3	11975	5.656	31752
3	11985	5.66144	31788
3	11995	5.66688	31824
3	12005	5.67232	31860
3	12015	5.67776	31896
3	12025	5.6832	31932
3	12035	5.68864	31968
3	12045	5.69408	32004
3	12055	5.69952	32040
3	12077	5.70496	32076
3	12087	5.7104	32112
3	12097	5.71584	32148
3	12107	5.72128	32184
3	12117	5.72672	32220
3	12127	5.73216	32256
3	12137	5.7376	32292
3	12147	5.74304	32328
3	12157	5.74848	32364
3	12173	5.75392	32400
3	12394	5.764	32436
3	12404	5.76944	32472
3	12414	5.77488	32508
3	12424	5.78032	32544
3	12434	5.78576	32580
3	12444	5.7912	32616
3	12454	5.79664	32652
3	12476	5.80208	32688
3	12486	5.80752	32724
3	12496	5.81296	32760
3	12506	5.8184	32796
3	12516	5.82384	32832
3	12526	5.82928	32868
3	12536	5.83472	32904
3	12546	5.84016	32940
3	12556	5.8456	32976
3	12572	5.85104	33012
3	12582	5.85648	33048
3	12592	5.86192	33084
3	12602	5.86736	33120
3	12612	5.8728	33156
3	12622	5.87824	33192
3	12632	5.88368	33228
3	12642	5.88912	33264
3	12652	5.89456	33300
3	12675	5.9	33336
3	12686	5.90544	33372
3	12696	5.91088	33408
3	12706	5.91632	33444
3	12716	5.92176	33480
3	12726	5.9272	33516
3	12736	5.93264	33552
3	12746	5.93808	33588
3	12756	5.94352	33624
3	12766	5.94896	33660
3	12782	5.9544	33696
3	12792	5.95984	33732
3	12802	5.96528	33768
3	12812	5.97072	33804
3	12822	5.97616	33840
3	12832	5.9816	33876
3	12842	5.98704	33912
3	12852	5.99248	33948
3	12862	5.99792	33984
3	12884	6.00336	34020
3	12894	6.0088	34056
3	12904	6.01424	34092
3	12914	6.01968	34128
3	12924	6.02512	34164
3	12934	6.03056	34200
3	12944	6.036	34236
3	12954	6.04144	34272
3	12964	6.04688	34308
3	12980	6.05232	34344
3	12990	6.05776	34380
3	13000	6.0632	34416
3	13010	6.06864	34452
3	13020	6.07408	34488
3	13030	6.07952	34524
3	13040	6.08496	34560
3	13050	6.0904	34596
3	13060	6.09584	34632
3	13082	6.10128	34668
3	13092	6.10672	34704
3	13102	6.11216	34740
3	13112	6.1176	34776
3	13122	6.12304	34812
3	13132	6.12848	34848
3	13142	6.13392	34884
3	13152	6.13936	34920
3	13162	6.1448	34956
3	13178	6.15024	34992
3	13188	6.15568	35028
3	13198	6.16112	35064
3	13208	6.16656	35100
3	13218	6.172	35136
3	13228	6.17744	35172
3	13238	6.18288	35208
3	13248	6.18832	35244
3	13258	6.19376	35280
3	13268	6.1992	35316
3	13290	6.20464	35352
3	13300	6.21008	35388
3	13310	6.21552	35424
3	13320	6.22096	35460
3	13330	6.2264	35496
3	13340	6.23184	35532
3	13350	6.23728	35568
3	13360	6.24272	35604
3	13370	6.24816	35640
3	13386	6.2536	35676
3	13396	6.25904	35712
3	13406	6.26448	35748
3	13416	6.26992	35784
3	13426	6.27536	35820
3	13436	6.2808	35856
3	13446	6.28624	35892
3	13456	6.29168	35928
3	13466	6.29712	35964
3	13488	6.30256	36000
3	13709	6.31264	36036
3	13719	6.31808	36072
3	13729	6.32352	36108
3	13739	6.32896	36144
3	13749	6.3344	36180
3	13759	6.33984	36216
3	13769	6.34528	36252
3	13785	6.35072	36288
3	13795	6.35616	36324
3	13805	6.3616	36360
3	13815	6.36704	36396
3	13825	6.37248	36432
3	13835	6.37792	36468
3	13845	6.38336	36504
3	13855	6.3888	36540
3	13865	6.39424	36576
3	13875	6.39968	36612
3	13897	6.40512	36648
3	13907	6.41056	36684
3	13917	6.416	36720
3	13927	6.42144	36756
3	13937	6.42688	36792
3	13947	6.43232	36828
3	13957	6.43776	36864
3	13967	6.4432	36900
3	13977	6.44864	36936
3	13995	6.45408	36972
3	14005	6.45952	37008
3	14015	6.46496	37044
3	14025	6.4704	37080
3	14035	6.47584	37116
3	14045	6.48128	37152
3	14055	6.48672	37188
3	14065	6.49216	37224
3	14075	6.4976	37260
3	14097	6.50304	37296
3	14107	6.50848	37332
3	14117	6.51392	37368
3	14127	6.51936	37404
3	14137	6.5248	37440
3	14147	6.53024	37476
3	14157	6.53568	37512
3	14167	6.54112	37548
3	14177	6.54656	37584
3	14193	6.552	37620
3	14203	6.55744	37656
3	14213	6.56288	37692
3	14223	6.56832	37728
3	14233	6.57376	37764
3	14243	6.5792	37800
3	14253	6.58464	37836
3	14263	6.59008	37872
3	14273	6.59552	37908
3	14295	6.60096	37944
3	14305	6.6064	37980
3	14315	6.61184	38016
3	14325	6.61728	38052
3	14335	6.62272	38088
3	14345	6.62816	38124
3	14355	6.6336	38160
3	14365	6.63904	38196
3	14375	6.64448	38232
3	14385	6.64992	38268
3	14401	6.65536	38304
3	14411	6.6608	38340
3	14421	6.66624	38376
3	14431	6.67168	38412
3	14441	6.67712	38448
3	14451	6.68256	38484
3	14461	6.688	38520
3	14471	6.69344	38556
3	14481	6.69888	38592
3	14503	6.70432	38628
3	14513	6.70976	38664
3	14523	6.7152	38700
3	14533	6.72064	38736
3	14543	6.72608	38772
3	14553	6.73152	38808
3	14563	6.73696	38844
3	14573	6.7424	38880
3	14583	6.74784	38916
3	14599	6.75328	38952
3	14609	6.75872	38988
3	14619	6.76416	39024
3	14629	6.7696	39060
3	14639	6.77504	39096
3	14649	6.78048	39132
3	14659	6.78592	39168
3	14669	6.79136	39204
3	14679	6.7968	39240
3	14701	6.80224	39276
3	14711	6.80768	39312
3	14721	6.81312	39348
3	14731	6.81856	39384
3	14741	6.824	39420
3	14751	6.82944	39456
3	14761	6.83488	39492
3	14771	6.84032	39528
3	14781	6.84576	39564
3	14797	6.8512	39600
3	15018	6.86128	39636
3	15028	6.86672	39672
3	15038	6.87216	39708
3	15048	6.8776	39744
3	15058	6.88304	39780
3	15068	6.88848	39816
3	15078	6.89392	39852
3	15088	6.89936	39888
3	15110	6.9048	39924
3	15120	6.91024	39960
3	15130	6.91568	39996
3	15140	6.92112	40032
3	15150	6.92656	40068
3	15160	6.932	40104
3	15170	6.93744	40140
3	15180	6.94288	40176
3	15190	6.94832	40212
3	15206	6.95376	40248
3	15216	6.9592	40284
3	15226	6.96464	40320
3	15236	6.97008	40356
3	15246	6.97552	40392
3	15256	6.98096	40428
3	15266	6.9864	40464
3	15276	6.99184	40500
3	15286	6.99728	40536
3	15310	7.00272	40572
3	15320	7.00816	40608
3	15330	7.0136	40644
3	15340	7.01904	40680
3	15350	7.02448	40716
3	15360	7.02992	40752
3	15370	7.03536	40788
3	15380	7.0408	40824
3	15390	7.04624	40860
3	15406	7.05168	40896
3	15416	7.05712	40932
3	15426	7.06256	40968
3	15436	7.068	41004
3	15446	7.07344	41040
3	15456	7.07888	41076
3	15466	7.08432	41112
3	15476	7.08976	41148
3	15486	7.0952	41184
3	15508	7.10064	41220
3	15518	7.10608	41256
3	15528	7.11152	41292
3	15538	7.11696	41328
3	15548	7.1224	41364
3	15558	7.12784	41400
3	15568	7.13328	41436
3	15578	7.13872	41472
3	15588	7.14416	41508
3	15598	7.1496	41544
3	15614	7.15504	41580
3	15624	7.16048	41616
3	15634	7.16592	41652
3	15644	7.17136	41688
3	15654	7.1768	41724
3	15664	7.18224	41760
3	15674	7.18768	41796
3	15684	7.19312	41832
3	15694	7.19856	41868
3	15716	7.204	41904
3	15726	7.20944	41940
3	15736	7.21488	41976
3	15746	7.22032	42012
3	15756	7.22576	42048
3	15766	7.2312	42084
3	15776	7.23664	42120
3	15786	7.24208	42156
3	15796	7.24752	42192
3	15812	7.25296	42228
3	15822	7.2584	42264
3	15832	7.26384	42300
3	15842	7.26928	42336
3	15852	7.27472	42372
3	15862	7.28016	42408
3	15872	7.2856	42444
3	15882	7.29104	42480
3	15892	7.29648	42516
3	15914	7.30192	42552
3	15924	7.30736	42588
3	15934	7.3128	42624
3	15944	7.31824	42660
3	15954	7.32368	42696
3	15964	7.32912	42732
3	15974	7.33456	42768
3	15984	7.34	42804
3	15994	7.34544	42840
3	16010	7.35088	42876
3	16020	7.35632	42912
3	16030	7.36176	42948
3	16040	7.3672	42984
3	16050	7.37264	43020
3	16060	7.37808	43056
3	16070	7.38352	43092
3	16080	7.38896	43128
3	16090	7.3944	43164
3	16100	7.39984	43200
3	16333	7.40992	43236
3	16343	7.41536	43272
3	16353	7.4208	43308
3	16363	7.42624	43344
3	16373	7.43168	43380
3	16383	7.43712	43416
3	16393	7.44256	43452
3	16403	7.448	43488
3	16419	7.45344	43524
3	16429	7.45888	43560
3	16439	7.46432	43596
3	16449	7.46976	43632
3	16459	7.4752	43668
3	16469	7.48064	43704
3	16479	7.48608	43740
3	16489	7.49152	43776
3	16499	7.49696	43812
3	16521	7.5024	43848
3	16531	7.50784	43884
3	16541	7.51328	43920
3	16551	7.51872	43956
3	16561	7.52416	43992
3	16571	7.5296	44028
3	16581	7.53504	44064
3	16591	7.54048	44100
3	16601	7.54592	44136
3	16619	7.55136	44172
3	16629	7.5568	44208
3	16639	7.56224	44244
3	16649	7.56768	44280
3	16659	7.57312	44316
3	16669	7.57856	44352
3	16679	7.584	44388
3	16689	7.58944	44424
3	16699	7.59488	44460
3	16721	7.60032	44496
3	16731	7.60576	44532
3	16741	7.6112	44568
3	16751	7.61664	44604
3	16761	7.62208	44640
3	16771	7.62752	44676
3	16781	7.63296	44712
3	16791	7.6384	44748
3	16801	7.64384	44784
3	16811	7.64928	44820
3	16827	7.65472	44856
3	16837	7.66016	44892
3	16847	7.6656	44928
3	16857	7.67104	44964
3	16867	7.67648	45000
3	16877	7.68192	45036
3	16887	7.68736	45072
3	16897	7.6928	45108
3	16907	7.69824	45144
3	16929	7.70368	45180
3	16939	7.70912	45216
3	16949	7.71456	45252
3	16959	7.72	45288
3	16969	7.72544	45324
3	16979	7.73088	45360
3	16989	7.73632	45396
3	16999	7.74176	45432
3	17009	7.7472	45468
3	17025	7.75264	45504
3	17035	7.75808	45540
3	17045	7.76352	45576
3	17055	7.76896	45612
3	17065	7.7744	45648
3	17075	7.77984	45684
3	17085	7.78528	45720
3	17095	7.79072	45756
3	17105	7.79616	45792
3	17127	7.8016	45828
3	17137	7.80704	45864
3	17147	7.81248	45900
3	17157	7.81792	45936
3	17167	7.82336	45972
3	17177	7.8288	46008
3	17187	7.83424	46044
3	17197	7.83968	46080
3	17207	7.84512	46116
3	17223	7.85056	46152
3	17233	7.856	46188
3	17243	7.86144	46224
3	17253	7.86688	46260
3	17263	7.87232	46296
3	17273	7.87776	46332
3	17283	7.8832	46368
3	17293	7.88864	46404
3	17303	7.89408	46440
3	17313	7.89952	46476
3	17335	7.90496	46512
3	17345	7.9104	46548
3	17355	7.91584	46584
3	17365	7.92128	46620
3	17375	7.92672	46656
3	17385	7.93216	46692
3	17395	7.9376	46728
3	17405	7.94304	46764
3	17415	7.94848	46800
3	17642	7.95856	46836
3	17652	7.964	46872
3	17662	7.96944	46908
3	17672	7.97488	46944
3	17682	7.98032	46980
3	17692	7.98576	47016
3	17702	7.9912	47052
3	17712	7.99664	47088
3	17734	8.00208	47124
3	17744	8.00752	47160
3	17754	8.01296	47196
3	17764	8.0184	47232
3	17774	8.02384	47268
3	17784	8.02928	47304
3	17794	8.03472	47340
3	17804	8.04016	47376
3	17814	8.0456	47412
3	17830	8.05104	47448
3	17840	8.05648	47484
3	17850	8.06192	47520
3	17860	8.06736	47556
3	17870	8.0728	47592
3	17880	8.07824	47628
3	17890	8.08368	47664
3	17900	8.08912	47700
3	17910	8.09456	47736
3	17933	8.1	47772
3	17944	8.10544	47808
3	17954	8.11088	47844
3	17964	8.11632	47880
3	17974	8.12176	47916
3	17984	8.1272	47952
3	17994	8.13264	47988
3	18004	8.13808	48024
3	18014	8.14352	48060
3	18024	8.14896	48096
3	18040	8.1544	48132
3	18050	8.15984	48168
3	18060	8.16528	48204
3	18070	8.17072	48240
3	18080	8.17616	48276
3	18090	8.1816	48312
3	18100	8.18704	48348
3	18110	8.19248	48384
3	18120	8.19792	48420
3	18142	8.20336	48456
3	18152	8.2088	48492
3	18162	8.21424	48528
3	18172	8.21968	48564
3	18182	8.22512	48600
3	18192	8.23056	48636
3	18202	8.236	48672
3	18212	8.24144	48708
3	18222	8.24688	48744
3	18238	8.25232	48780
3	18248	8.25776	48816
3	18258	8.2632	48852
3	18268	8.26864	48888
3	18278	8.27408	48924
3	18288	8.27952	48960
3	18298	8.28496	48996
3	18308	8.2904	49032
3	18318	8.29584	49068
3	18340	8.30128	49104
3	18350	8.30672	49140
3	18360	8.31216	49176
3	18370	8.3176	49212
3	18380	8.32304	49248
3	18390	8.32848	49284
3	18400	8.33392	49320
3	18410	8.33936	49356
3	18420	8.3448	49392
3	18436	8.35024	49428
3	18446	8.35568	49464
3	18456	8.36112	49500
3	18466	8.36656	49536
3	18476	8.372	49572
3	18486	8.37744	49608
3	18496	8.38288	49644
3	18506	8.38832	49680
3	18516	8.39376	49716
3	18526	8.3992	49752
3	18548	8.40464	49788
3	18558	8.41008	49824
3	18568	8.41552	49860
3	18578	8.42096	49896
3	18588	8.4264	49932
3	18598	8.43184	49968
3	18608	8.43728	50004
3	18618	8.44272	50040
3	18628	8.44816	50076
3	18644	8.4536	50112
3	18654	8.45904	50148
3	18664	8.46448	50184
3	18674	8.46992	50220
3	18684	8.47536	50256
3	18694	8.4808	50292
3	18704	8.48624	50328
3	18714	8.49168	50364
3	18724	8.49712	50400
3	18957	8.5072	50436
3	18967	8.51264	50472
3	18977	8.51808	50508
3	18987	8.52352	50544
3	18997	8.52896	50580
3	19007	8.5344	50616
3	19017	8.53984	50652
3	19027	8.54528	50688
3	19043	8.55072	50724
3	19053	8.55616	50760
3	19063	8.5616	50796
3	19073	8.56704	50832
3	19083	8.57248	50868
3	19093	8.57792	50904
3	19103	8.58336	50940
3	19113	8.5888	50976
3	19123	8.59424	51012
3	19133	8.59968	51048
3	19155	8.60512	51084
3	19165	8.61056	51120
3	19175	8.616	51156
3	19185	8.62144	51192
3	19195	8.62688	51228
3	19205	8.63232	51264
3	19215	8.63776	51300
3	19225	8.6432	51336
3	19235	8.64864	51372
3	19253	8.65408	51408
3	19263	8.65952	51444
3	19273	8.66496	51480
3	19283	8.6704	51516
3	19293	8.67584	51552
3	19303	8.68128	51588
3	19313	8.68672	51624
3	19323	8.69216	51660
3	19333	8.6976	51696
3	19355	8.70304	51732
3	19365	8.70848	51768
3	19375	8.71392	51804
3	19385	8.71936	51840
3	19395	8.7248	51876
3	19405	8.73024	51912
3	19415	8.73568	51948
3	19425	8.74112	51984
3	19435	8.74656	52020
3	19451	8.752	52056
3	19461	8.75744	52092
3	19471	8.76288	52128
3	19481	8.76832	52164
3	19491	8.77376	52200
3	19501	8.7792	52236
3	19511	8.78464	52272
3	19521	8.79008	52308
3	19531	8.79552	52344
3	19553	8.80096	52380
3	19563	8.8064	52416
3	19573	8.81184	52452
3	19583	8.81728	52488
3	19593	8.82272	52524
3	19603	8.82816	52560
3	19613	8.8336	52596
3	19623	8.83904	52632
3	19633	8.84448	52668
3	19643	8.84992	52704
3	19659	8.85536	52740
3	19669	8.8608	52776
3	19679	8.86624	52812
3	19689	8.87168	52848
3	19699	8.87712	52884
3	19709	8.88256	52920
3	19719	8.888	52956
3	19729	8.89344	52992
3	19739	8.89888	53028
3	19761	8.90432	53064
3	19771	8.90976	53100
3	19781	8.9152	53136
3	19791	8.92064	53172
3	19801	8.92608	53208
3	19811	8.93152	53244
3	19821	8.93696	53280
3	19831	8.9424	53316
3	19841	8.94784	53352
3	19857	8.95328	53388
3	19867	8.95872	53424
3	19877	8.96416	53460
3	19887	8.9696	53496
3	19897	8.97504	53532
3	19907	8.98048	53568
3	19917	8.98592	53604
3	19927	8.99136	53640
3	19937	8.9968	53676
3	19959	9.00224	53712
3	19969	9.00768	53748
3	19979	9.01312	53784
3	19989	9.01856	53820
3	19999	9.024	53856
3	20009	9.02944	53892
3	20019	9.03488	53928
3	20029	9.04032	53964
3	20039	9.04576	54000
3	20266	9.05584	54036
3	20276	9.06128	54072
3	20286	9.06672	54108
3	20296	9.07216	54144
3	20306	9.0776	54180
3	20316	9.08304	54216
3	20326	9.08848	54252
3	20336	9.09392	54288
3	20346	9.09936	54324
3	20368	9.1048	54360
3	20378	9.11024	54396
3	20388	9.11568	54432
3	20398	9.12112	54468
3	20408	9.12656	54504
3	20418	9.132	54540
3	20428	9.13744	54576
3	20438	9.14288	54612
3	20448	9.14832	54648
3	20464	9.15376	54684
3	20474	9.1592	54720
3	20484	9.16464	54756
3	20494	9.17008	54792
3	20504	9.17552	54828
3	20514	9.18096	54864
3	20524	9.1864	54900
3	20534	9.19184	54936
3	20544	9.19728	54972
3	20568	9.20272	55008
3	20578	9.20816	55044
3	20588	9.2136	55080
3	20598	9.21904	55116
3	20608	9.22448	55152
3	20618	9.22992	55188
3	20628	9.23536	55224
3	20638	9.2408	55260
3	20648	9.24624	55296
3	20664	9.25168	55332
3	20674	9.25712	55368
3	20684	9.26256	55404
3	20694	9.268	55440
3	20704	9.27344	55476
3	20714	9.27888	55512
3	20724	9.28432	55548
3	20734	9.28976	55584
3	20744	9.2952	55620
3	20766	9.30064	55656
3	20776	9.30608	55692
3	20786	9.31152	55728
3	20796	9.31696	55764
3	20806	9.3224	55800
3	20816	9.32784	55836
3	20826	9.33328	55872
3	20836	9.33872	55908
3	20846	9.34416	55944
3	20856	9.3496	55980
3	20872	9.35504	56016
3	20882	9.36048	56052
3	20892	9.36592	56088
3	20902	9.37136	56124
3	20912	9.3768	56160
3	20922	9.38224	56196
3	20932	9.38768	56232
3	20942	9.39312	56268
3	20952	9.39856	56304
3	20974	9.404	56340
3	20984	9.40944	56376
3	20994	9.41488	56412
3	21004	9.42032	56448
3	21014	9.42576	56484
3	21024	9.4312	56520
3	21034	9.43664	56556
3	21044	9.44208	56592
3	21054	9.44752	56628
3	21070	9.45296	56664
3	21080	9.4584	56700
3	21090	9.46384	56736
3	21100	9.46928	56772
3	21110	9.47472	56808
3	21120	9.48016	56844
3	21130	9.4856	56880
3	21140	9.49104	56916
3	21150	9.49648	56952
3	21172	9.50192	56988
3	21182	9.50736	57024
3	21192	9.5128	57060
3	21202	9.51824	57096
3	21212	9.52368	57132
3	21222	9.52912	57168
3	21232	9.53456	57204
3	21242	9.54	57240
3	21252	9.54544	57276
3	21268	9.55088	57312
3	21278	9.55632	57348
3	21288	9.56176	57384
3	21298	9.5672	57420
3	21308	9.57264	57456
3	21318	9.57808	57492
3	21328	9.58352	57528
3	21338	9.58896	57564
3	21348	9.5944	57600
3	21581	9.60448	57636
3	21591	9.60992	57672
3	21601	9.61536	57708
3	21611	9.6208	57744
3	21621	9.62624	57780
3	21631	9.63168	57816
3	21641	9.63712	57852
3	21651	9.64256	57888
3	21661	9.648	57924
3	21677	9.65344	57960
3	21687	9.65888	57996
3	21697	9.66432	58032
3	21707	9.66976	58068
3	21717	9.6752	58104
3	21727	9.68064	58140
3	21737	9.68608	58176
3	21747	9.69152	58212
3	21757	9.69696	58248
3	21779	9.7024	58284
3	21789	9.70784	58320
3	21799	9.71328	58356
3	21809	9.71872	58392
3	21819	9.72416	58428
3	21829	9.7296	58464
3	21839	9.73504	58500
3	21849	9.74048	58536
3	21859	9.74592	58572
3	21877	9.75136	58608
3	21887	9.7568	58644
3	21897	9.76224	58680
3	21907	9.76768	58716
3	21917	9.77312	58752
3	21927	9.77856	58788
3	21937	9.784	58824
3	21947	9.78944	58860
3	21957	9.79488	58896
3	21979	9.80032	58932
3	21989	9.80576	58968
3	21999	9.8112	59004
3	22009	9.81664	59040
3	22019	9.82208	59076
3	22029	9.82752	59112
3	22039	9.83296	59148
3	22049	9.8384	59184
3	22059	9.84384	59220
3	22069	9.84928	59256
3	22085	9.85472	59292
3	22095	9.86016	59328
3	22105	9.8656	59364
3	22115	9.87104	59400
3	22125	9.87648	59436
3	22135	9.88192	59472
3	22145	9.88736	59508
3	22155	9.8928	59544
3	22165	9.89824	59580
3	22187	9.90368	59616
3	22197	9.90912	59652
3	22207	9.91456	59688
3	22217	9.92	59724
3	22227	9.92544	59760
3	22237	9.93088	59796
3	22247	9.93632	59832
3	22257	9.94176	59868
3	22267	9.9472	59904
3	22283	9.95264	59940
3	22293	9.95808	59976
3	22303	9.96352	60012
3	22313	9.96896	60048
3	22323	9.9744	60084
3	22333	9.97984	60120
3	22343	9.98528	60156
3	22353	9.99072	60192
3	22363	9.99616	60228

