version 2
run A-0-20190907-04:38:16-11506
attr configname A
attr datetime 20190907-04:38:16
attr experiment A
attr inifile SimV2.ini
attr iterationvars $0=2
attr iterationvarsf 2-
attr measurement $0=2
attr network NetworkTormV2
attr processid 11506
attr repetition 0
attr replication #0
attr resultdir results
attr runnumber 0
attr seedset 0
param **.mobility.traceFile "\"paths/A.movements\""
param **.numNodes 2
param **.wirelessIfc.wirelessRange 25m
param **.bluetoothIfc.wirelessRange 25m
param **.numNodes 2
param **.application.usedRNG 1
param **.application.dataGenerationInterval 1ms
param **.application.dataSizeInBytes 10
param **.application.ttl 999999s
param **application.destinationAddr "\"Wf:00:00:00:00:02\""
param **application.destinationBTAddr "\"Bt:00:00:00:00:02\""
param **application.nodesThatGen true
param **application.nodesGenMsg "\"0\""
param **application.startMultipleMsg true
param **application.numMultipleMsg 100
param **application.hopsListSize 50
param **.routingLayer "\"RoutingLayer\""
param **.routing.maximumCacheSize 5000byte
param **.routing.maximumHopCount 25
param **.routing.useTTL false
param **.neighboring.antiEntropyInterval 200ms
param **.neighboring.maximumRandomBackoffDuration 1s
param **.neighboring.delayPerDataMsg 0.1
param **neighboring.usedRNG 2
param **.neighboring.GWAddr "\"02:00:00:00:00:03\""
param **.neighboring.sendWifiFirst true
param **.neighboring.maxLengthGraph 20
param **.wirelessIfc.wirelessRange 15m
param **.wirelessIfc.neighbourScanInterval 50ms
param **.wirelessIfc.bandwidthBitRate 100000bps
param **.wirelessIfc.wirelessHeaderSize 32byte
param **.wirelessIfc.minSSI -90
param **.bluetoothIfc.wirelessRange 15m
param **.bluetoothIfc.neighbourScanInterval 100ms
param **.bluetoothIfc.bandwidthBitRate 100000bps
param **.bluetoothIfc.wirelessHeaderSize 16byte
param **.bluetoothIfc.minSSI -90
param **.mobilityType "\"BonnMotionMobility\""
param **.mobility.traceFile "\"paths/Moves2.movements\""
param **.mobility.nodeId -1

vector 0 NetworkTormV2 neighbourhoodSize:vector ETV
attr source neighbourhoodSize
vector 1 NetworkTormV2 deliveryRatio:vector ETV
attr source sum(totalDataBytesReceived)/sum(totalDataBytesReceivableByAllNodes)
vector 2 NetworkTormV2 dataBytesReceivedSum:vector ETV
attr source sum(dataBytesReceived)
vector 3 NetworkTormV2 totalBytesReceivedSum:vector ETV
attr source sum(totalBytesReceived)
0	7	0.05	1
0	8	0.05	1
0	14	0.1	1
0	15	0.1	1
0	16	0.1	1
0	17	0.1	1
0	125	0.15	1
0	126	0.15	1
0	231	0.2	1
0	232	0.2	1
0	233	0.2	1
0	234	0.2	1
0	243	0.25	1
0	244	0.25	1
0	249	0.3	1
0	250	0.3	1
0	251	0.3	1
0	252	0.3	1
0	261	0.35	1
0	262	0.35	1
0	267	0.4	1
0	268	0.4	1
0	269	0.4	1
0	270	0.4	1
0	279	0.45	1
0	280	0.45	1
0	285	0.5	1
0	286	0.5	1
0	287	0.5	1
0	288	0.5	1
0	297	0.55	1
0	298	0.55	1
0	303	0.6	1
0	304	0.6	1
0	305	0.6	1
0	306	0.6	1
0	315	0.65	1
0	316	0.65	1
0	321	0.7	1
0	322	0.7	1
0	323	0.7	1
0	324	0.7	1
0	333	0.75	1
0	334	0.75	1
0	339	0.8	1
0	340	0.8	1
0	341	0.8	1
0	342	0.8	1
0	351	0.85	1
0	352	0.85	1
0	357	0.9	1
0	358	0.9	1
0	359	0.9	1
0	360	0.9	1
0	369	0.95	1
0	370	0.95	1
0	375	1	1
0	376	1	1
0	377	1	1
0	378	1	1
0	387	1.05	1
0	388	1.05	1
0	393	1.1	1
0	394	1.1	1
0	395	1.1	1
0	396	1.1	1
0	701	1.15	1
0	702	1.15	1
0	797	1.2	1
0	798	1.2	1
0	799	1.2	1
0	800	1.2	1
0	899	1.25	1
0	900	1.25	1
0	1001	1.3	1
0	1002	1.3	1
0	1003	1.3	1
0	1004	1.3	1
0	1103	1.35	1
0	1104	1.35	1
0	1210	1.4	1
0	1211	1.4	1
0	1212	1.4	1
0	1213	1.4	1
0	1316	1.45	1
0	1317	1.45	1
0	1412	1.5	1
0	1413	1.5	1
0	1414	1.5	1
0	1415	1.5	1
0	1520	1.55	1
0	1521	1.55	1
0	1618	1.6	1
0	1619	1.6	1
0	1620	1.6	1
0	1621	1.6	1
0	1720	1.65	1
0	1721	1.65	1
0	1766	1.7	1
0	1767	1.7	1
0	1768	1.7	1
0	1769	1.7	1
0	1778	1.75	1
0	1779	1.75	1
0	1784	1.8	1
0	1785	1.8	1
0	1786	1.8	1
0	1787	1.8	1
0	1809	1.85	1
0	1810	1.85	1
0	1815	1.9	1
0	1816	1.9	1
0	1817	1.9	1
0	1818	1.9	1
0	1827	1.95	1
0	1828	1.95	1
0	1846	2	1
0	1847	2	1
0	1848	2	1
0	1849	2	1
0	1858	2.05	1
0	1859	2.05	1
0	1864	2.1	1
0	1865	2.1	1
0	1866	2.1	1
0	1867	2.1	1
0	1889	2.15	1
0	1890	2.15	1
0	1895	2.2	1
0	1896	2.2	1
0	1897	2.2	1
0	1898	2.2	1
0	1907	2.25	1
0	1908	2.25	1
0	1926	2.3	1
0	1927	2.3	1
0	1928	2.3	1
0	1929	2.3	1
0	1938	2.35	1
0	1939	2.35	1
0	1944	2.4	1
0	1945	2.4	1
0	1946	2.4	1
0	1947	2.4	1
0	1969	2.45	1
0	1970	2.45	1
0	1975	2.5	1
0	1976	2.5	1
0	1977	2.5	1
0	1978	2.5	1
0	1987	2.55	1
0	1988	2.55	1
0	2006	2.6	1
0	2007	2.6	1
0	2008	2.6	1
0	2009	2.6	1
0	2018	2.65	1
0	2019	2.65	1
0	2024	2.7	1
0	2025	2.7	1
0	2026	2.7	1
0	2027	2.7	1
0	2049	2.75	1
0	2050	2.75	1
0	2055	2.8	1
0	2056	2.8	1
0	2057	2.8	1
0	2058	2.8	1
0	2067	2.85	1
0	2068	2.85	1
0	2086	2.9	1
0	2087	2.9	1
0	2088	2.9	1
0	2089	2.9	1
0	2098	2.95	1
0	2099	2.95	1
0	2104	3	1
0	2105	3	1
0	2106	3	1
0	2107	3	1
0	2129	3.05	1
0	2130	3.05	1
0	2135	3.1	1
0	2136	3.1	1
0	2137	3.1	1
0	2138	3.1	1
0	2147	3.15	1
0	2148	3.15	1
0	2166	3.2	1
0	2167	3.2	1
0	2168	3.2	1
0	2169	3.2	1
0	2178	3.25	1
0	2179	3.25	1
0	2184	3.3	1
0	2185	3.3	1
0	2186	3.3	1
0	2187	3.3	1
0	2209	3.35	1
0	2210	3.35	1
0	2215	3.4	1
0	2216	3.4	1
0	2217	3.4	1
0	2218	3.4	1
0	2227	3.45	1
0	2228	3.45	1
0	2246	3.5	1
0	2247	3.5	1
0	2248	3.5	1
0	2249	3.5	1
0	2258	3.55	1
0	2259	3.55	1
0	2264	3.6	1
0	2265	3.6	1
0	2266	3.6	1
0	2267	3.6	1
0	2289	3.65	1
0	2290	3.65	1
0	2295	3.7	1
0	2296	3.7	1
0	2297	3.7	1
0	2298	3.7	1
0	2307	3.75	1
0	2308	3.75	1
0	2326	3.8	1
0	2327	3.8	1
0	2328	3.8	1
0	2329	3.8	1
0	2338	3.85	1
0	2339	3.85	1
0	2344	3.9	1
0	2345	3.9	1
0	2346	3.9	1
0	2347	3.9	1
0	2369	3.95	1
0	2370	3.95	1
0	2375	4	1
0	2376	4	1
0	2377	4	1
0	2378	4	1
0	2387	4.05	1
0	2388	4.05	1
0	2406	4.1	1
0	2407	4.1	1
0	2408	4.1	1
0	2409	4.1	1
0	2418	4.15	1
0	2419	4.15	1
0	2424	4.2	1
0	2425	4.2	1
0	2426	4.2	1
0	2427	4.2	1
0	2449	4.25	1
0	2450	4.25	1
0	2455	4.3	1
0	2456	4.3	1
0	2457	4.3	1
0	2458	4.3	1
0	2467	4.35	1
0	2468	4.35	1
0	2486	4.4	1
0	2487	4.4	1
0	2488	4.4	1
0	2489	4.4	1
0	2498	4.45	1
0	2499	4.45	1
0	2504	4.5	1
0	2505	4.5	1
0	2506	4.5	1
0	2507	4.5	1
0	2529	4.55	1
0	2530	4.55	1
0	2535	4.6	1
0	2536	4.6	1
0	2537	4.6	1
0	2538	4.6	1
0	2547	4.65	1
0	2548	4.65	1
0	2566	4.7	1
0	2567	4.7	1
0	2568	4.7	1
0	2569	4.7	1
0	2578	4.75	1
0	2579	4.75	1
0	2584	4.8	1
0	2585	4.8	1
0	2586	4.8	1
0	2587	4.8	1
0	2609	4.85	1
0	2610	4.85	1
0	2615	4.9	1
0	2616	4.9	1
0	2617	4.9	1
0	2618	4.9	1
0	2627	4.95	1
0	2628	4.95	1
0	2646	5	1
0	2647	5	1
0	2648	5	1
0	2649	5	1
0	2658	5.05	1
0	2659	5.05	1
0	2664	5.1	1
0	2665	5.1	1
0	2666	5.1	1
0	2667	5.1	1
0	2689	5.15	1
0	2690	5.15	1
0	2695	5.2	1
0	2696	5.2	1
0	2697	5.2	1
0	2698	5.2	1
0	2707	5.25	1
0	2708	5.25	1
0	2726	5.3	1
0	2727	5.3	1
0	2728	5.3	1
0	2729	5.3	1
0	2738	5.35	1
0	2739	5.35	1
0	2744	5.4	1
0	2745	5.4	1
0	2746	5.4	1
0	2747	5.4	1
0	2769	5.45	1
0	2770	5.45	1
0	2775	5.5	1
0	2776	5.5	1
0	2777	5.5	1
0	2778	5.5	1
0	2787	5.55	1
0	2788	5.55	1
0	2806	5.6	1
0	2807	5.6	1
0	2808	5.6	1
0	2809	5.6	1
0	2818	5.65	1
0	2819	5.65	1
0	2824	5.7	1
0	2825	5.7	1
0	2826	5.7	1
0	2827	5.7	1
0	2849	5.75	1
0	2850	5.75	1
0	2855	5.8	1
0	2856	5.8	1
0	2857	5.8	1
0	2858	5.8	1
0	2867	5.85	1
0	2868	5.85	1
0	2886	5.9	1
0	2887	5.9	1
0	2888	5.9	1
0	2889	5.9	1
0	2898	5.95	1
0	2899	5.95	1
0	2904	6	1
0	2905	6	1
0	2906	6	1
0	2907	6	1
0	2929	6.05	1
0	2930	6.05	1
0	2935	6.1	1
0	2936	6.1	1
0	2937	6.1	1
0	2938	6.1	1
0	2947	6.15	1
0	2948	6.15	1
0	2966	6.2	1
0	2967	6.2	1
0	2968	6.2	1
0	2969	6.2	1
0	2978	6.25	1
0	2979	6.25	1
0	2984	6.3	1
0	2985	6.3	1
0	2986	6.3	1
0	2987	6.3	1
0	3009	6.35	1
0	3010	6.35	1
0	3015	6.4	1
0	3016	6.4	1
0	3017	6.4	1
0	3018	6.4	1
0	3027	6.45	1
0	3028	6.45	1
0	3046	6.5	1
0	3047	6.5	1
0	3048	6.5	1
0	3049	6.5	1
0	3058	6.55	1
0	3059	6.55	1
0	3064	6.6	1
0	3065	6.6	1
0	3066	6.6	1
0	3067	6.6	1
0	3089	6.65	1
0	3090	6.65	1
0	3095	6.7	1
0	3096	6.7	1
0	3097	6.7	1
0	3098	6.7	1
0	3107	6.75	1
0	3108	6.75	1
0	3126	6.8	1
0	3127	6.8	1
0	3128	6.8	1
0	3129	6.8	1
0	3138	6.85	1
0	3139	6.85	1
0	3144	6.9	1
0	3145	6.9	1
0	3146	6.9	1
0	3147	6.9	1
0	3169	6.95	1
0	3170	6.95	1
0	3175	7	1
0	3176	7	1
0	3177	7	1
0	3178	7	1
0	3187	7.05	1
0	3188	7.05	1
0	3206	7.1	1
0	3207	7.1	1
0	3208	7.1	1
0	3209	7.1	1
0	3218	7.15	1
0	3219	7.15	1
0	3224	7.2	1
0	3225	7.2	1
0	3226	7.2	1
0	3227	7.2	1
0	3249	7.25	1
0	3250	7.25	1
0	3255	7.3	1
0	3256	7.3	1
0	3257	7.3	1
0	3258	7.3	1
0	3267	7.35	1
0	3268	7.35	1
0	3286	7.4	1
0	3287	7.4	1
0	3288	7.4	1
0	3289	7.4	1
0	3298	7.45	1
0	3299	7.45	1
0	3304	7.5	1
0	3305	7.5	1
0	3306	7.5	1
0	3307	7.5	1
0	3329	7.55	1
0	3330	7.55	1
0	3335	7.6	1
0	3336	7.6	1
0	3337	7.6	1
0	3338	7.6	1
0	3347	7.65	1
0	3348	7.65	1
0	3366	7.7	1
0	3367	7.7	1
0	3368	7.7	1
0	3369	7.7	1
0	3378	7.75	1
0	3379	7.75	1
0	3384	7.8	1
0	3385	7.8	1
0	3386	7.8	1
0	3387	7.8	1
0	3409	7.85	1
0	3410	7.85	1
0	3415	7.9	1
0	3416	7.9	1
0	3417	7.9	1
0	3418	7.9	1
0	3427	7.95	1
0	3428	7.95	1
0	3446	8	1
0	3447	8	1
0	3448	8	1
0	3449	8	1
0	3458	8.05	1
0	3459	8.05	1
0	3464	8.1	1
0	3465	8.1	1
0	3466	8.1	1
0	3467	8.1	1
0	3489	8.15	1
0	3490	8.15	1
0	3495	8.2	1
0	3496	8.2	1
0	3497	8.2	1
0	3498	8.2	1
0	3507	8.25	1
0	3508	8.25	1
0	3526	8.3	1
0	3527	8.3	1
0	3528	8.3	1
0	3529	8.3	1
0	3538	8.35	1
0	3539	8.35	1
0	3544	8.4	1
0	3545	8.4	1
0	3546	8.4	1
0	3547	8.4	1
0	3569	8.45	1
0	3570	8.45	1
0	3575	8.5	1
0	3576	8.5	1
0	3577	8.5	1
0	3578	8.5	1
0	3587	8.55	1
0	3588	8.55	1
0	3606	8.6	1
0	3607	8.6	1
0	3608	8.6	1
0	3609	8.6	1
0	3618	8.65	1
0	3619	8.65	1
0	3624	8.7	1
0	3625	8.7	1
0	3626	8.7	1
0	3627	8.7	1
0	3649	8.75	1
0	3650	8.75	1
0	3655	8.8	1
0	3656	8.8	1
0	3657	8.8	1
0	3658	8.8	1
0	3667	8.85	1
0	3668	8.85	1
0	3686	8.9	1
0	3687	8.9	1
0	3688	8.9	1
0	3689	8.9	1
0	3698	8.95	1
0	3699	8.95	1
0	3704	9	1
0	3705	9	1
0	3706	9	1
0	3707	9	1
0	3729	9.05	1
0	3730	9.05	1
0	3735	9.1	1
0	3736	9.1	1
0	3737	9.1	1
0	3738	9.1	1
0	3747	9.15	1
0	3748	9.15	1
0	3766	9.2	1
0	3767	9.2	1
0	3768	9.2	1
0	3769	9.2	1
0	3778	9.25	1
0	3779	9.25	1
0	3784	9.3	1
0	3785	9.3	1
0	3786	9.3	1
0	3787	9.3	1
0	3809	9.35	1
0	3810	9.35	1
0	3815	9.4	1
0	3816	9.4	1
0	3817	9.4	1
0	3818	9.4	1
0	3827	9.45	1
0	3828	9.45	1
0	3846	9.5	1
0	3847	9.5	1
0	3848	9.5	1
0	3849	9.5	1
0	3858	9.55	1
0	3859	9.55	1
0	3864	9.6	1
0	3865	9.6	1
0	3866	9.6	1
0	3867	9.6	1
0	3889	9.65	1
0	3890	9.65	1
0	3895	9.7	1
0	3896	9.7	1
0	3897	9.7	1
0	3898	9.7	1
0	3907	9.75	1
0	3908	9.75	1
0	3926	9.8	1
0	3927	9.8	1
0	3928	9.8	1
0	3929	9.8	1
0	3938	9.85	1
0	3939	9.85	1
0	3944	9.9	1
0	3945	9.9	1
0	3946	9.9	1
0	3947	9.9	1
0	3969	9.95	1
0	3970	9.95	1
0	3975	10	1
0	3976	10	1
0	3977	10	1
0	3978	10	1
1	13	0.1	-nan
1	27	0.101	-nan
1	29	0.102	-nan
1	31	0.103	-nan
1	33	0.104	-nan
1	35	0.105	-nan
1	37	0.106	-nan
1	39	0.107	-nan
1	41	0.108	-nan
1	43	0.109	-nan
1	45	0.11	-nan
1	47	0.111	-nan
1	49	0.112	-nan
1	51	0.113	-nan
1	53	0.114	-nan
1	55	0.115	-nan
1	57	0.116	-nan
1	59	0.117	-nan
1	61	0.118	-nan
1	63	0.119	-nan
1	65	0.12	-nan
1	67	0.121	-nan
1	69	0.122	-nan
1	71	0.123	-nan
1	73	0.124	-nan
1	75	0.125	-nan
1	77	0.126	-nan
1	79	0.127	-nan
1	81	0.128	-nan
1	83	0.129	-nan
1	85	0.13	-nan
1	87	0.131	-nan
1	89	0.132	-nan
1	91	0.133	-nan
1	93	0.134	-nan
1	95	0.135	-nan
1	97	0.136	-nan
1	99	0.137	-nan
1	101	0.138	-nan
1	103	0.139	-nan
1	105	0.14	-nan
1	107	0.141	-nan
1	109	0.142	-nan
1	111	0.143	-nan
1	113	0.144	-nan
1	115	0.145	-nan
1	117	0.146	-nan
1	119	0.147	-nan
1	121	0.148	-nan
1	123	0.149	-nan
1	127	0.15	-nan
1	133	0.151	-nan
1	135	0.152	-nan
1	137	0.153	-nan
1	139	0.154	-nan
1	141	0.155	-nan
1	143	0.156	-nan
1	145	0.157	-nan
1	147	0.158	-nan
1	149	0.159	-nan
1	151	0.16	-nan
1	153	0.161	-nan
1	155	0.162	-nan
1	157	0.163	-nan
1	159	0.164	-nan
1	161	0.165	-nan
1	163	0.166	-nan
1	165	0.167	-nan
1	167	0.168	-nan
1	169	0.169	-nan
1	171	0.17	-nan
1	173	0.171	-nan
1	175	0.172	-nan
1	177	0.173	-nan
1	179	0.174	-nan
1	181	0.175	-nan
1	183	0.176	-nan
1	185	0.177	-nan
1	187	0.178	-nan
1	189	0.179	-nan
1	191	0.18	-nan
1	193	0.181	-nan
1	195	0.182	-nan
1	197	0.183	-nan
1	199	0.184	-nan
1	201	0.185	-nan
1	203	0.186	-nan
1	205	0.187	-nan
1	207	0.188	-nan
1	209	0.189	-nan
1	211	0.19	-nan
1	213	0.191	-nan
1	215	0.192	-nan
1	217	0.193	-nan
1	219	0.194	-nan
1	221	0.195	-nan
1	223	0.196	-nan
1	225	0.197	-nan
1	227	0.198	-nan
1	229	0.199	-nan
2	634	1.11456	36
2	644	1.12	72
2	654	1.12544	108
2	664	1.13088	144
2	674	1.13632	180
2	684	1.14176	216
2	694	1.1472	252
2	710	1.15264	288
2	720	1.15808	324
2	730	1.16352	360
2	740	1.16896	396
2	750	1.1744	432
2	760	1.17984	468
2	770	1.18528	504
2	780	1.19072	540
2	790	1.19616	576
2	812	1.2016	612
2	822	1.20704	648
2	832	1.21248	684
2	842	1.21792	720
2	852	1.22336	756
2	862	1.2288	792
2	872	1.23424	828
2	882	1.23968	864
2	892	1.24512	900
2	908	1.25056	936
2	918	1.256	972
2	928	1.26144	1008
2	938	1.26688	1044
2	948	1.27232	1080
2	958	1.27776	1116
2	968	1.2832	1152
2	978	1.28864	1188
2	988	1.29408	1224
2	998	1.29952	1260
2	1020	1.30496	1296
2	1030	1.3104	1332
2	1040	1.31584	1368
2	1050	1.32128	1404
2	1060	1.32672	1440
2	1070	1.33216	1476
2	1080	1.3376	1512
2	1090	1.34304	1548
2	1100	1.34848	1584
2	1120	1.35392	1620
2	1137	1.35936	1656
2	1147	1.3648	1692
2	1157	1.37024	1728
2	1167	1.37568	1764
2	1177	1.38112	1800
2	1187	1.38656	1836
2	1197	1.392	1872
2	1207	1.39744	1908
2	1229	1.40288	1944
2	1239	1.40832	1980
2	1249	1.41376	2016
2	1259	1.4192	2052
2	1269	1.42464	2088
2	1279	1.43008	2124
2	1289	1.43552	2160
2	1299	1.44096	2196
2	1309	1.4464	2232
2	1325	1.45184	2268
2	1335	1.45728	2304
2	1345	1.46272	2340
2	1355	1.46816	2376
2	1365	1.4736	2412
2	1375	1.47904	2448
2	1385	1.48448	2484
2	1395	1.48992	2520
2	1405	1.49536	2556
2	1427	1.5008	2592
2	1437	1.50624	2628
2	1447	1.51168	2664
2	1457	1.51712	2700
2	1467	1.52256	2736
2	1477	1.528	2772
2	1487	1.53344	2808
2	1497	1.53888	2844
2	1507	1.54432	2880
2	1517	1.54976	2916
2	1535	1.5552	2952
2	1545	1.56064	2988
2	1555	1.56608	3024
2	1565	1.57152	3060
2	1575	1.57696	3096
2	1585	1.5824	3132
2	1595	1.58784	3168
2	1605	1.59328	3204
2	1615	1.59872	3240
2	1637	1.60416	3276
2	1647	1.6096	3312
2	1657	1.61504	3348
2	1667	1.62048	3384
2	1677	1.62592	3420
2	1687	1.63136	3456
2	1697	1.6368	3492
2	1707	1.64224	3528
2	1717	1.64768	3564
2	1733	1.65312	3600
3	634	1.11456	36
3	644	1.12	72
3	654	1.12544	108
3	664	1.13088	144
3	674	1.13632	180
3	684	1.14176	216
3	694	1.1472	252
3	710	1.15264	288
3	720	1.15808	324
3	730	1.16352	360
3	740	1.16896	396
3	750	1.1744	432
3	760	1.17984	468
3	770	1.18528	504
3	780	1.19072	540
3	790	1.19616	576
3	812	1.2016	612
3	822	1.20704	648
3	832	1.21248	684
3	842	1.21792	720
3	852	1.22336	756
3	862	1.2288	792
3	872	1.23424	828
3	882	1.23968	864
3	892	1.24512	900
3	908	1.25056	936
3	918	1.256	972
3	928	1.26144	1008
3	938	1.26688	1044
3	948	1.27232	1080
3	958	1.27776	1116
3	968	1.2832	1152
3	978	1.28864	1188
3	988	1.29408	1224
3	998	1.29952	1260
3	1020	1.30496	1296
3	1030	1.3104	1332
3	1040	1.31584	1368
3	1050	1.32128	1404
3	1060	1.32672	1440
3	1070	1.33216	1476
3	1080	1.3376	1512
3	1090	1.34304	1548
3	1100	1.34848	1584
3	1120	1.35392	1620
3	1137	1.35936	1656
3	1147	1.3648	1692
3	1157	1.37024	1728
3	1167	1.37568	1764
3	1177	1.38112	1800
3	1187	1.38656	1836
3	1197	1.392	1872
3	1207	1.39744	1908
3	1229	1.40288	1944
3	1239	1.40832	1980
3	1249	1.41376	2016
3	1259	1.4192	2052
3	1269	1.42464	2088
3	1279	1.43008	2124
3	1289	1.43552	2160
3	1299	1.44096	2196
3	1309	1.4464	2232
3	1325	1.45184	2268
3	1335	1.45728	2304
3	1345	1.46272	2340
3	1355	1.46816	2376
3	1365	1.4736	2412
3	1375	1.47904	2448
3	1385	1.48448	2484
3	1395	1.48992	2520
3	1405	1.49536	2556
3	1427	1.5008	2592
3	1437	1.50624	2628
3	1447	1.51168	2664
3	1457	1.51712	2700
3	1467	1.52256	2736
3	1477	1.528	2772
3	1487	1.53344	2808
3	1497	1.53888	2844
3	1507	1.54432	2880
3	1517	1.54976	2916
3	1535	1.5552	2952
3	1545	1.56064	2988
3	1555	1.56608	3024
3	1565	1.57152	3060
3	1575	1.57696	3096
3	1585	1.5824	3132
3	1595	1.58784	3168
3	1605	1.59328	3204
3	1615	1.59872	3240
3	1637	1.60416	3276
3	1647	1.6096	3312
3	1657	1.61504	3348
3	1667	1.62048	3384
3	1677	1.62592	3420
3	1687	1.63136	3456
3	1697	1.6368	3492
3	1707	1.64224	3528
3	1717	1.64768	3564
3	1733	1.65312	3600

