version 2
run A-1-20190827-20:26:11-9812
attr configname A
attr datetime 20190827-20:26:11
attr experiment A
attr inifile SimV2.ini
attr iterationvars $0=3
attr iterationvarsf 3-
attr measurement $0=3
attr network NetworkTormV2
attr processid 9812
attr repetition 0
attr replication #0
attr resultdir results
attr runnumber 1
attr seedset 1
param **.mobility.traceFile "\"paths/A.movements\""
param **.numNodes 3
param **.wirelessIfc.wirelessRange 25m
param **.bluetoothIfc.wirelessRange 25m
param **.numNodes 2
param **.application.usedRNG 1
param **.application.dataGenerationInterval 1ms
param **.application.dataSizeInBytes 10
param **.application.ttl 999999s
param **application.destinationAddr "\"Wf:00:00:00:00:02\""
param **application.destinationBTAddr "\"Bt:00:00:00:00:02\""
param **application.nodesThatGen true
param **application.nodesGenMsg "\"0\""
param **application.startMultipleMsg true
param **application.numMultipleMsg 100
param **.routingLayer "\"EpidemicRoutingLayer\""
param **.routing.maximumCacheSize 5000byte
param **.routing.maximumHopCount 25
param **.routing.useTTL false
param **.neighboring.antiEntropyInterval 200ms
param **.neighboring.maximumRandomBackoffDuration 1s
param **.neighboring.delayPerDataMsg 0.1
param **neighboring.usedRNG 2
param **.neighboring.GWAddr "\"02:00:00:00:00:03\""
param **.neighboring.sendWifiFirst true
param **.storage.maximumCacheSize 5000byte
param **.wirelessIfc.wirelessRange 15m
param **.wirelessIfc.neighbourScanInterval 50ms
param **.wirelessIfc.bandwidthBitRate 100000bps
param **.wirelessIfc.wirelessHeaderSize 32byte
param **.wirelessIfc.minSSI -90
param **.bluetoothIfc.wirelessRange 15m
param **.bluetoothIfc.neighbourScanInterval 100ms
param **.bluetoothIfc.bandwidthBitRate 100000bps
param **.bluetoothIfc.wirelessHeaderSize 16byte
param **.bluetoothIfc.minSSI -90
param **.mobilityType "\"BonnMotionMobility\""
param **.mobility.traceFile "\"paths/Moves2.movements\""
param **.mobility.nodeId -1

vector 0 NetworkTormV2 neighbourhoodSize:vector ETV
attr source neighbourhoodSize
vector 1 NetworkTormV2 deliveryRatio:vector ETV
attr source sum(totalDataBytesReceived)/sum(totalDataBytesReceivableByAllNodes)
vector 2 NetworkTormV2 dataBytesReceivedSum:vector ETV
attr source sum(dataBytesReceived)
vector 3 NetworkTormV2 totalBytesReceivedSum:vector ETV
attr source sum(totalBytesReceived)
0	10	0.05	1
0	11	0.05	2
0	12	0.05	1
0	20	0.1	1
0	21	0.1	2
0	22	0.1	1
0	23	0.1	1
0	24	0.1	2
0	25	0.1	1
0	137	0.15	1
0	138	0.15	2
0	139	0.15	1
0	246	0.2	1
0	247	0.2	2
0	248	0.2	1
0	249	0.2	1
0	250	0.2	2
0	251	0.2	1
0	264	0.25	1
0	265	0.25	2
0	266	0.25	1
0	273	0.3	1
0	274	0.3	2
0	275	0.3	1
0	276	0.3	1
0	277	0.3	2
0	278	0.3	1
0	291	0.35	1
0	292	0.35	2
0	293	0.35	1
0	300	0.4	1
0	301	0.4	2
0	302	0.4	1
0	303	0.4	1
0	304	0.4	2
0	305	0.4	1
0	318	0.45	1
0	319	0.45	2
0	320	0.45	1
0	327	0.5	1
0	328	0.5	2
0	329	0.5	1
0	330	0.5	1
0	331	0.5	2
0	332	0.5	1
0	345	0.55	1
0	346	0.55	2
0	347	0.55	1
0	354	0.6	1
0	355	0.6	2
0	356	0.6	1
0	357	0.6	1
0	358	0.6	2
0	359	0.6	1
0	372	0.65	1
0	373	0.65	2
0	374	0.65	1
0	381	0.7	1
0	382	0.7	2
0	383	0.7	1
0	384	0.7	1
0	385	0.7	2
0	386	0.7	1
0	399	0.75	1
0	400	0.75	2
0	401	0.75	1
0	408	0.8	1
0	409	0.8	2
0	410	0.8	1
0	411	0.8	1
0	412	0.8	2
0	413	0.8	1
0	426	0.85	1
0	427	0.85	2
0	428	0.85	1
0	435	0.9	1
0	436	0.9	2
0	437	0.9	1
0	438	0.9	1
0	439	0.9	2
0	440	0.9	1
0	453	0.95	1
0	454	0.95	2
0	455	0.95	1
0	462	1	1
0	463	1	2
0	464	1	1
0	465	1	1
0	466	1	2
0	467	1	1
0	480	1.05	1
0	481	1.05	2
0	482	1.05	1
0	489	1.1	1
0	490	1.1	2
0	491	1.1	1
0	492	1.1	1
0	493	1.1	2
0	494	1.1	1
0	819	1.15	1
0	820	1.15	2
0	821	1.15	1
0	918	1.2	1
0	919	1.2	2
0	920	1.2	1
0	921	1.2	1
0	922	1.2	2
0	923	1.2	1
0	1032	1.25	1
0	1033	1.25	2
0	1034	1.25	1
0	1131	1.3	1
0	1132	1.3	2
0	1133	1.3	1
0	1134	1.3	1
0	1135	1.3	2
0	1136	1.3	1
0	1239	1.35	1
0	1240	1.35	2
0	1241	1.35	1
0	1491	1.4	1
0	1492	1.4	2
0	1493	1.4	1
0	1494	1.4	1
0	1495	1.4	2
0	1496	1.4	1
0	1653	1.45	1
0	1654	1.45	2
0	1655	1.45	1
0	1818	1.5	1
0	1819	1.5	2
0	1820	1.5	1
0	1821	1.5	1
0	1822	1.5	2
0	1823	1.5	1
0	1980	1.55	1
0	1981	1.55	2
0	1982	1.55	1
0	2150	1.6	1
0	2151	1.6	2
0	2152	1.6	1
0	2153	1.6	1
0	2154	1.6	2
0	2155	1.6	1
0	2308	1.65	1
0	2309	1.65	2
0	2310	1.65	1
0	2623	1.7	1
0	2624	1.7	2
0	2625	1.7	1
0	2626	1.7	1
0	2627	1.7	2
0	2628	1.7	1
0	2920	1.75	1
0	2921	1.75	2
0	2922	1.75	1
0	3217	1.8	1
0	3218	1.8	2
0	3219	1.8	1
0	3220	1.8	1
0	3221	1.8	2
0	3222	1.8	1
0	3359	1.85	1
0	3360	1.85	2
0	3361	1.85	1
0	3485	1.9	1
0	3486	1.9	2
0	3487	1.9	1
0	3488	1.9	1
0	3489	1.9	2
0	3490	1.9	1
0	3611	1.95	1
0	3612	1.95	2
0	3613	1.95	1
0	3728	2	1
0	3729	2	2
0	3730	2	1
0	3731	2	1
0	3732	2	2
0	3733	2	1
0	3854	2.05	1
0	3855	2.05	2
0	3856	2.05	1
0	3973	2.1	1
0	3974	2.1	2
0	3975	2.1	1
0	3976	2.1	1
0	3977	2.1	2
0	3978	2.1	1
0	4111	2.15	1
0	4112	2.15	2
0	4113	2.15	1
0	4228	2.2	1
0	4229	2.2	2
0	4230	2.2	1
0	4231	2.2	1
0	4232	2.2	2
0	4233	2.2	1
0	4354	2.25	1
0	4355	2.25	2
0	4356	2.25	1
0	4471	2.3	1
0	4472	2.3	2
0	4473	2.3	1
0	4474	2.3	1
0	4475	2.3	2
0	4476	2.3	1
0	4841	2.35	1
0	4842	2.35	2
0	4843	2.35	1
0	5020	2.4	1
0	5021	2.4	2
0	5022	2.4	1
0	5023	2.4	1
0	5024	2.4	2
0	5025	2.4	1
0	5208	2.45	1
0	5209	2.45	2
0	5210	2.45	1
0	5387	2.5	1
0	5388	2.5	2
0	5389	2.5	1
0	5390	2.5	1
0	5391	2.5	2
0	5392	2.5	1
0	5571	2.55	1
0	5572	2.55	2
0	5573	2.55	1
0	5738	2.6	1
0	5739	2.6	2
0	5740	2.6	1
0	5741	2.6	1
0	5742	2.6	2
0	5743	2.6	1
0	5906	2.65	1
0	5907	2.65	2
0	5908	2.65	1
0	6059	2.7	1
0	6060	2.7	2
0	6061	2.7	1
0	6062	2.7	1
0	6063	2.7	2
0	6064	2.7	1
0	6225	2.75	1
0	6226	2.75	2
0	6227	2.75	1
0	6378	2.8	1
0	6379	2.8	2
0	6380	2.8	1
0	6381	2.8	1
0	6382	2.8	2
0	6383	2.8	1
0	6546	2.85	1
0	6547	2.85	2
0	6548	2.85	1
0	6897	2.9	1
0	6898	2.9	2
0	6899	2.9	1
0	6900	2.9	1
0	6901	2.9	2
0	6902	2.9	1
0	7051	2.95	1
0	7052	2.95	2
0	7053	2.95	1
0	7194	3	1
0	7195	3	2
0	7196	3	1
0	7197	3	1
0	7198	3	2
0	7199	3	1
0	7554	3.05	1
0	7555	3.05	2
0	7556	3.05	1
0	7697	3.1	1
0	7698	3.1	2
0	7699	3.1	1
0	7700	3.1	1
0	7701	3.1	2
0	7702	3.1	1
0	8031	3.15	1
0	8032	3.15	2
0	8033	3.15	1
0	8122	3.2	1
0	8123	3.2	2
0	8124	3.2	1
0	8125	3.2	1
0	8126	3.2	2
0	8127	3.2	1
0	8216	3.25	1
0	8217	3.25	2
0	8218	3.25	1
0	8316	3.3	1
0	8317	3.3	2
0	8318	3.3	1
0	8319	3.3	1
0	8320	3.3	2
0	8321	3.3	1
0	8424	3.35	1
0	8425	3.35	2
0	8426	3.35	1
0	8525	3.4	1
0	8526	3.4	2
0	8527	3.4	1
0	8528	3.4	1
0	8529	3.4	2
0	8530	3.4	1
0	8639	3.45	1
0	8640	3.45	2
0	8641	3.45	1
0	8738	3.5	1
0	8739	3.5	2
0	8740	3.5	1
0	8741	3.5	1
0	8742	3.5	2
0	8743	3.5	1
0	8852	3.55	1
0	8853	3.55	2
0	8854	3.55	1
0	8951	3.6	1
0	8952	3.6	2
0	8953	3.6	1
0	8954	3.6	1
0	8955	3.6	2
0	8956	3.6	1
0	9059	3.65	1
0	9060	3.65	2
0	9061	3.65	1
0	9162	3.7	1
0	9163	3.7	2
0	9164	3.7	1
0	9165	3.7	1
0	9166	3.7	2
0	9167	3.7	1
0	9270	3.75	1
0	9271	3.75	2
0	9272	3.75	1
0	9369	3.8	1
0	9370	3.8	2
0	9371	3.8	1
0	9372	3.8	1
0	9373	3.8	2
0	9374	3.8	1
0	9479	3.85	1
0	9480	3.85	2
0	9481	3.85	1
0	9562	3.9	1
0	9563	3.9	2
0	9564	3.9	1
0	9565	3.9	1
0	9566	3.9	2
0	9567	3.9	1
0	9670	3.95	1
0	9671	3.95	2
0	9672	3.95	1
0	9775	4	1
0	9776	4	2
0	9777	4	1
0	9778	4	1
0	9779	4	2
0	9780	4	1
0	9883	4.05	1
0	9884	4.05	2
0	9885	4.05	1
0	9982	4.1	1
0	9983	4.1	2
0	9984	4.1	1
0	9985	4.1	1
0	9986	4.1	2
0	9987	4.1	1
0	10094	4.15	1
0	10095	4.15	2
0	10096	4.15	1
0	10193	4.2	1
0	10194	4.2	2
0	10195	4.2	1
0	10196	4.2	1
0	10197	4.2	2
0	10198	4.2	1
0	10307	4.25	1
0	10308	4.25	2
0	10309	4.25	1
0	10406	4.3	1
0	10407	4.3	2
0	10408	4.3	1
0	10409	4.3	1
0	10410	4.3	2
0	10411	4.3	1
0	10514	4.35	1
0	10515	4.35	2
0	10516	4.35	1
0	10617	4.4	1
0	10618	4.4	2
0	10619	4.4	1
0	10620	4.4	1
0	10621	4.4	2
0	10622	4.4	1
0	10734	4.45	1
0	10735	4.45	2
0	10736	4.45	1
0	11226	4.5	1
0	11227	4.5	2
0	11228	4.5	1
0	11229	4.5	1
0	11230	4.5	2
0	11231	4.5	1
0	11352	4.55	1
0	11353	4.55	2
0	11354	4.55	1
0	11480	4.6	1
0	11481	4.6	2
0	11482	4.6	1
0	11483	4.6	1
0	11484	4.6	2
0	11485	4.6	1
0	11606	4.65	1
0	11607	4.65	2
0	11608	4.65	1
0	11737	4.7	1
0	11738	4.7	2
0	11739	4.7	1
0	11740	4.7	1
0	11741	4.7	2
0	11742	4.7	1
0	11865	4.75	1
0	11866	4.75	2
0	11867	4.75	1
0	11982	4.8	1
0	11983	4.8	2
0	11984	4.8	1
0	11985	4.8	1
0	11986	4.8	2
0	11987	4.8	1
0	12108	4.85	1
0	12109	4.85	2
0	12110	4.85	1
0	12225	4.9	1
0	12226	4.9	2
0	12227	4.9	1
0	12228	4.9	1
0	12229	4.9	2
0	12230	4.9	1
0	12363	4.95	1
0	12364	4.95	2
0	12365	4.95	1
0	12480	5	1
0	12481	5	2
0	12482	5	1
0	12483	5	1
0	12484	5	2
0	12485	5	1
0	12813	5.05	1
0	12814	5.05	2
0	12815	5.05	1
0	13564	5.1	1
0	13565	5.1	2
0	13566	5.1	1
0	13567	5.1	1
0	13568	5.1	2
0	13569	5.1	1
0	13715	5.15	1
0	13716	5.15	2
0	13717	5.15	1
0	13858	5.2	1
0	13859	5.2	2
0	13860	5.2	1
0	13861	5.2	1
0	13862	5.2	2
0	13863	5.2	1
0	14023	5.25	1
0	14024	5.25	2
0	14025	5.25	1
0	14164	5.3	1
0	14165	5.3	2
0	14166	5.3	1
0	14167	5.3	1
0	14168	5.3	2
0	14169	5.3	1
0	14290	5.35	1
0	14291	5.35	2
0	14292	5.35	1
0	14409	5.4	1
0	14410	5.4	2
0	14411	5.4	1
0	14412	5.4	1
0	14413	5.4	2
0	14414	5.4	1
0	14541	5.45	1
0	14542	5.45	2
0	14543	5.45	1
0	14664	5.5	1
0	14665	5.5	2
0	14666	5.5	1
0	14667	5.5	1
0	14668	5.5	2
0	14669	5.5	1
0	14790	5.55	1
0	14791	5.55	2
0	14792	5.55	1
0	14907	5.6	1
0	14908	5.6	2
0	14909	5.6	1
0	14910	5.6	1
0	14911	5.6	2
0	14912	5.6	1
0	15050	5.65	1
0	15051	5.65	2
0	15052	5.65	1
0	15199	5.7	1
0	15200	5.7	2
0	15201	5.7	1
0	15202	5.7	1
0	15203	5.7	2
0	15204	5.7	1
0	15554	5.75	1
0	15555	5.75	2
0	15556	5.75	1
0	15695	5.8	1
0	15696	5.8	2
0	15697	5.8	1
0	15698	5.8	1
0	15699	5.8	2
0	15700	5.8	1
0	16045	5.85	1
0	16046	5.85	2
0	16047	5.85	1
0	16197	5.9	1
0	16198	5.9	2
0	16199	5.9	1
0	16200	5.9	1
0	16201	5.9	2
0	16202	5.9	1
0	16365	5.95	1
0	16366	5.95	2
0	16367	5.95	1
0	16522	6	1
0	16523	6	2
0	16524	6	1
0	16525	6	1
0	16526	6	2
0	16527	6	1
0	16686	6.05	1
0	16687	6.05	2
0	16688	6.05	1
0	16839	6.1	1
0	16840	6.1	2
0	16841	6.1	1
0	16842	6.1	1
0	16843	6.1	2
0	16844	6.1	1
0	17007	6.15	1
0	17008	6.15	2
0	17009	6.15	1
0	17166	6.2	1
0	17167	6.2	2
0	17168	6.2	1
0	17169	6.2	1
0	17170	6.2	2
0	17171	6.2	1
0	17328	6.25	1
0	17329	6.25	2
0	17330	6.25	1
0	17485	6.3	1
0	17486	6.3	2
0	17487	6.3	1
0	17488	6.3	1
0	17489	6.3	2
0	17490	6.3	1
0	17647	6.35	1
0	17648	6.35	2
0	17649	6.35	1
0	17812	6.4	1
0	17813	6.4	2
0	17814	6.4	1
0	17815	6.4	1
0	17816	6.4	2
0	17817	6.4	1
0	18000	6.45	1
0	18001	6.45	2
0	18002	6.45	1
0	18178	6.5	1
0	18179	6.5	2
0	18180	6.5	1
0	18181	6.5	1
0	18182	6.5	2
0	18183	6.5	1
0	18366	6.55	1
0	18367	6.55	2
0	18368	6.55	1
0	18545	6.6	1
0	18546	6.6	2
0	18547	6.6	1
0	18548	6.6	1
0	18549	6.6	2
0	18550	6.6	1
0	18731	6.65	1
0	18732	6.65	2
0	18733	6.65	1
0	19051	6.7	1
0	19052	6.7	2
0	19053	6.7	1
0	19054	6.7	1
0	19055	6.7	2
0	19056	6.7	1
0	19159	6.75	1
0	19160	6.75	2
0	19161	6.75	1
0	19262	6.8	1
0	19263	6.8	2
0	19264	6.8	1
0	19265	6.8	1
0	19266	6.8	2
0	19267	6.8	1
0	19370	6.85	1
0	19371	6.85	2
0	19372	6.85	1
0	19471	6.9	1
0	19472	6.9	2
0	19473	6.9	1
0	19474	6.9	1
0	19475	6.9	2
0	19476	6.9	1
0	19585	6.95	1
0	19586	6.95	2
0	19587	6.95	1
0	19905	7	1
0	19906	7	2
0	19907	7	1
0	19908	7	1
0	19909	7	2
0	19910	7	1
0	20256	7.05	1
0	20257	7.05	2
0	20258	7.05	1
0	20399	7.1	1
0	20400	7.1	2
0	20401	7.1	1
0	20402	7.1	1
0	20403	7.1	2
0	20404	7.1	1
0	20555	7.15	1
0	20556	7.15	2
0	20557	7.15	1
0	20709	7.2	1
0	20710	7.2	2
0	20711	7.2	1
0	20712	7.2	1
0	20713	7.2	2
0	20714	7.2	1
0	20871	7.25	1
0	20872	7.25	2
0	20873	7.25	1
0	21024	7.3	1
0	21025	7.3	2
0	21026	7.3	1
0	21027	7.3	1
0	21028	7.3	2
0	21029	7.3	1
0	21192	7.35	1
0	21193	7.35	2
0	21194	7.35	1
0	21345	7.4	1
0	21346	7.4	2
0	21347	7.4	1
0	21348	7.4	1
0	21349	7.4	2
0	21350	7.4	1
0	21513	7.45	1
0	21514	7.45	2
0	21515	7.45	1
0	21672	7.5	1
0	21673	7.5	2
0	21674	7.5	1
0	21675	7.5	1
0	21676	7.5	2
0	21677	7.5	1
0	22009	7.55	1
0	22010	7.55	2
0	22011	7.55	1
0	22112	7.6	1
0	22113	7.6	2
0	22114	7.6	1
0	22115	7.6	1
0	22116	7.6	2
0	22117	7.6	1
0	22220	7.65	1
0	22221	7.65	2
0	22222	7.65	1
0	22321	7.7	1
0	22322	7.7	2
0	22323	7.7	1
0	22324	7.7	1
0	22325	7.7	2
0	22326	7.7	1
0	22431	7.75	1
0	22432	7.75	2
0	22433	7.75	1
0	22516	7.8	1
0	22517	7.8	2
0	22518	7.8	1
0	22519	7.8	1
0	22520	7.8	2
0	22521	7.8	1
0	22630	7.85	1
0	22631	7.85	2
0	22632	7.85	1
0	22729	7.9	1
0	22730	7.9	2
0	22731	7.9	1
0	22732	7.9	1
0	22733	7.9	2
0	22734	7.9	1
0	22841	7.95	1
0	22842	7.95	2
0	22843	7.95	1
0	22940	8	1
0	22941	8	2
0	22942	8	1
0	22943	8	1
0	22944	8	2
0	22945	8	1
0	23048	8.05	1
0	23049	8.05	2
0	23050	8.05	1
0	23153	8.1	1
0	23154	8.1	2
0	23155	8.1	1
0	23156	8.1	1
0	23157	8.1	2
0	23158	8.1	1
0	23261	8.15	1
0	23262	8.15	2
0	23263	8.15	1
0	23364	8.2	1
0	23365	8.2	2
0	23366	8.2	1
0	23367	8.2	1
0	23368	8.2	2
0	23369	8.2	1
0	23472	8.25	1
0	23473	8.25	2
0	23474	8.25	1
0	23571	8.3	1
0	23572	8.3	2
0	23573	8.3	1
0	23574	8.3	1
0	23575	8.3	2
0	23576	8.3	1
0	23677	8.35	1
0	23678	8.35	2
0	23679	8.35	1
0	23766	8.4	1
0	23767	8.4	2
0	23768	8.4	1
0	23769	8.4	1
0	23770	8.4	2
0	23771	8.4	1
0	24085	8.45	1
0	24086	8.45	2
0	24087	8.45	1
0	24170	8.5	1
0	24171	8.5	2
0	24172	8.5	1
0	24173	8.5	1
0	24174	8.5	2
0	24175	8.5	1
0	24268	8.55	1
0	24269	8.55	2
0	24270	8.55	1
0	24553	8.6	1
0	24554	8.6	2
0	24555	8.6	1
0	24556	8.6	1
0	24557	8.6	2
0	24558	8.6	1
0	24680	8.65	1
0	24681	8.65	2
0	24682	8.65	1
0	24806	8.7	1
0	24807	8.7	2
0	24808	8.7	1
0	24809	8.7	1
0	24810	8.7	2
0	24811	8.7	1
0	24944	8.75	1
0	24945	8.75	2
0	24946	8.75	1
0	25063	8.8	1
0	25064	8.8	2
0	25065	8.8	1
0	25066	8.8	1
0	25067	8.8	2
0	25068	8.8	1
0	25191	8.85	1
0	25192	8.85	2
0	25193	8.85	1
0	25308	8.9	1
0	25309	8.9	2
0	25310	8.9	1
0	25311	8.9	1
0	25312	8.9	2
0	25313	8.9	1
0	25434	8.95	1
0	25435	8.95	2
0	25436	8.95	1
0	25557	9	1
0	25558	9	2
0	25559	9	1
0	25560	9	1
0	25561	9	2
0	25562	9	1
0	25689	9.05	1
0	25690	9.05	2
0	25691	9.05	1
0	25806	9.1	1
0	25807	9.1	2
0	25808	9.1	1
0	25809	9.1	1
0	25810	9.1	2
0	25811	9.1	1
0	26134	9.15	1
0	26135	9.15	2
0	26136	9.15	1
0	26498	9.2	1
0	26499	9.2	2
0	26500	9.2	1
0	26501	9.2	1
0	26502	9.2	2
0	26503	9.2	1
0	26691	9.25	1
0	26692	9.25	2
0	26693	9.25	1
0	26870	9.3	1
0	26871	9.3	2
0	26872	9.3	1
0	26873	9.3	1
0	26874	9.3	2
0	26875	9.3	1
0	27060	9.35	1
0	27061	9.35	2
0	27062	9.35	1
0	27241	9.4	1
0	27242	9.4	2
0	27243	9.4	1
0	27244	9.4	1
0	27245	9.4	2
0	27246	9.4	1
0	27403	9.45	1
0	27404	9.45	2
0	27405	9.45	1
0	27568	9.5	1
0	27569	9.5	2
0	27570	9.5	1
0	27571	9.5	1
0	27572	9.5	2
0	27573	9.5	1
0	27730	9.55	1
0	27731	9.55	2
0	27732	9.55	1
0	27883	9.6	1
0	27884	9.6	2
0	27885	9.6	1
0	27886	9.6	1
0	27887	9.6	2
0	27888	9.6	1
0	28049	9.65	1
0	28050	9.65	2
0	28051	9.65	1
0	28202	9.7	1
0	28203	9.7	2
0	28204	9.7	1
0	28205	9.7	1
0	28206	9.7	2
0	28207	9.7	1
0	28368	9.75	1
0	28369	9.75	2
0	28370	9.75	1
0	28507	9.8	1
0	28508	9.8	2
0	28509	9.8	1
0	28510	9.8	1
0	28511	9.8	2
0	28512	9.8	1
0	28659	9.85	1
0	28660	9.85	2
0	28661	9.85	1
0	29001	9.9	1
0	29002	9.9	2
0	29003	9.9	1
0	29004	9.9	1
0	29005	9.9	2
0	29006	9.9	1
0	29153	9.95	1
0	29154	9.95	2
0	29155	9.95	1
0	29463	10	1
0	29464	10	2
0	29465	10	1
0	29466	10	1
0	29467	10	2
0	29468	10	1
1	19	0.1	-nan
1	39	0.101	-nan
1	41	0.102	-nan
1	43	0.103	-nan
1	45	0.104	-nan
1	47	0.105	-nan
1	49	0.106	-nan
1	51	0.107	-nan
1	53	0.108	-nan
1	55	0.109	-nan
1	57	0.11	-nan
1	59	0.111	-nan
1	61	0.112	-nan
1	63	0.113	-nan
1	65	0.114	-nan
1	67	0.115	-nan
1	69	0.116	-nan
1	71	0.117	-nan
1	73	0.118	-nan
1	75	0.119	-nan
1	77	0.12	-nan
1	79	0.121	-nan
1	81	0.122	-nan
1	83	0.123	-nan
1	85	0.124	-nan
1	87	0.125	-nan
1	89	0.126	-nan
1	91	0.127	-nan
1	93	0.128	-nan
1	95	0.129	-nan
1	97	0.13	-nan
1	99	0.131	-nan
1	101	0.132	-nan
1	103	0.133	-nan
1	105	0.134	-nan
1	107	0.135	-nan
1	109	0.136	-nan
1	111	0.137	-nan
1	113	0.138	-nan
1	115	0.139	-nan
1	117	0.14	-nan
1	119	0.141	-nan
1	121	0.142	-nan
1	123	0.143	-nan
1	125	0.144	-nan
1	127	0.145	-nan
1	129	0.146	-nan
1	131	0.147	-nan
1	133	0.148	-nan
1	135	0.149	-nan
1	140	0.15	-nan
1	148	0.151	-nan
1	150	0.152	-nan
1	152	0.153	-nan
1	154	0.154	-nan
1	156	0.155	-nan
1	158	0.156	-nan
1	160	0.157	-nan
1	162	0.158	-nan
1	164	0.159	-nan
1	166	0.16	-nan
1	168	0.161	-nan
1	170	0.162	-nan
1	172	0.163	-nan
1	174	0.164	-nan
1	176	0.165	-nan
1	178	0.166	-nan
1	180	0.167	-nan
1	182	0.168	-nan
1	184	0.169	-nan
1	186	0.17	-nan
1	188	0.171	-nan
1	190	0.172	-nan
1	192	0.173	-nan
1	194	0.174	-nan
1	196	0.175	-nan
1	198	0.176	-nan
1	200	0.177	-nan
1	202	0.178	-nan
1	204	0.179	-nan
1	206	0.18	-nan
1	208	0.181	-nan
1	210	0.182	-nan
1	212	0.183	-nan
1	214	0.184	-nan
1	216	0.185	-nan
1	218	0.186	-nan
1	220	0.187	-nan
1	222	0.188	-nan
1	224	0.189	-nan
1	226	0.19	-nan
1	228	0.191	-nan
1	230	0.192	-nan
1	232	0.193	-nan
1	234	0.194	-nan
1	236	0.195	-nan
1	238	0.196	-nan
1	240	0.197	-nan
1	242	0.198	-nan
1	244	0.199	-nan
2	762	1.11904	36
2	772	1.12448	72
2	782	1.12992	108
2	792	1.13536	144
2	802	1.1408	180
2	812	1.14624	216
2	831	1.15168	252
2	841	1.15712	288
2	851	1.16256	324
2	861	1.168	360
2	871	1.17344	396
2	881	1.17888	432
2	891	1.18432	468
2	901	1.18976	504
2	911	1.1952	540
2	939	1.20064	576
2	949	1.20608	612
2	959	1.21152	648
2	969	1.21696	684
2	979	1.2224	720
2	989	1.22784	756
2	999	1.23328	792
2	1009	1.23872	828
2	1019	1.24416	864
2	1029	1.2496	900
2	1048	1.25504	936
2	1058	1.26048	972
2	1068	1.26592	1008
2	1078	1.27136	1044
2	1088	1.2768	1080
2	1098	1.28224	1116
2	1108	1.28768	1152
2	1118	1.29312	1188
2	1128	1.29856	1224
2	1156	1.304	1260
2	1166	1.30944	1296
2	1176	1.31488	1332
2	1186	1.32032	1368
2	1196	1.32576	1404
2	1206	1.3312	1440
2	1216	1.33664	1476
2	1226	1.34208	1512
2	1236	1.34752	1548
2	1263	1.35296	1584
2	1283	1.3584	1620
2	1394	1.36384	1656
2	1408	1.36928	1692
2	1414	1.37424	1728
2	1420	1.37472	1764
2	1430	1.37968	1800
2	1436	1.38016	1836
2	1446	1.38512	1872
2	1452	1.3856	1908
2	1462	1.39056	1944
2	1468	1.39104	1980
2	1478	1.396	2016
2	1484	1.39648	2052
2	1512	1.40144	2088
2	1518	1.40192	2124
2	1528	1.40688	2160
2	1534	1.40736	2196
2	1544	1.41232	2232
2	1550	1.4128	2268
2	1560	1.41776	2304
2	1566	1.41824	2340
2	1576	1.4232	2376
2	1582	1.42368	2412
2	1592	1.42864	2448
2	1598	1.42912	2484
2	1608	1.43408	2520
2	1614	1.43456	2556
2	1624	1.43952	2592
2	1630	1.44	2628
2	1640	1.44496	2664
2	1646	1.44544	2700
2	1665	1.4504	2736
2	1671	1.45088	2772
2	1681	1.45584	2808
2	1687	1.45632	2844
2	1697	1.46128	2880
2	1703	1.46176	2916
2	1713	1.46672	2952
2	1719	1.4672	2988
2	1729	1.47216	3024
2	1735	1.47264	3060
2	1745	1.4776	3096
2	1751	1.47808	3132
2	1761	1.48304	3168
2	1767	1.48352	3204
2	1777	1.48848	3240
2	1783	1.48896	3276
2	1793	1.49392	3312
2	1799	1.4944	3348
2	1809	1.49936	3384
2	1815	1.49984	3420
2	1843	1.5048	3456
2	1849	1.50528	3492
2	1859	1.51024	3528
2	1865	1.51072	3564
2	1875	1.51568	3600
2	1881	1.51616	3636
2	1891	1.52112	3672
2	1897	1.5216	3708
2	1907	1.52656	3744
2	1913	1.52704	3780
2	1923	1.532	3816
2	1929	1.53248	3852
2	1939	1.53744	3888
2	1945	1.53792	3924
2	1955	1.54288	3960
2	1961	1.54336	3996
2	1971	1.54832	4032
2	1977	1.5488	4068
2	2002	1.55376	4104
2	2008	1.55424	4140
2	2025	1.5592	4176
2	2031	1.55968	4212
2	2041	1.56464	4248
2	2047	1.56512	4284
2	2057	1.57008	4320
2	2063	1.57056	4356
2	2073	1.57552	4392
2	2079	1.576	4428
2	2089	1.58096	4464
2	2095	1.58144	4500
2	2105	1.5864	4536
2	2111	1.58688	4572
2	2121	1.59184	4608
2	2127	1.59232	4644
2	2137	1.59728	4680
2	2143	1.59776	4716
2	2171	1.60272	4752
2	2177	1.6032	4788
2	2187	1.60816	4824
2	2193	1.60864	4860
2	2203	1.6136	4896
2	2209	1.61408	4932
2	2227	1.61952	4968
2	2241	1.62496	5004
2	2255	1.6304	5040
2	2269	1.63584	5076
2	2283	1.64128	5112
2	2297	1.64672	5148
2	2324	1.65216	5184
2	2338	1.6576	5220
2	3163	1.7736	5256
2	3164	1.7736	5292
2	3175	1.77904	5328
2	3176	1.77904	5364
2	3187	1.78448	5400
2	3188	1.78448	5436
2	3199	1.78992	5472
2	3200	1.78992	5508
2	3211	1.79536	5544
2	3212	1.79536	5580
2	3245	1.8008	5616
2	3246	1.8008	5652
2	3257	1.80624	5688
2	3258	1.80624	5724
2	3269	1.81168	5760
2	3270	1.81168	5796
2	3281	1.81712	5832
2	3282	1.81712	5868
2	3293	1.82256	5904
2	3294	1.82256	5940
2	3305	1.828	5976
2	3306	1.828	6012
2	3317	1.83344	6048
2	3318	1.83344	6084
2	3329	1.83888	6120
2	3330	1.83888	6156
2	3341	1.84432	6192
2	3342	1.84432	6228
2	3353	1.84976	6264
2	3354	1.84976	6300
2	3383	1.8552	6336
2	3384	1.8552	6372
2	3395	1.86064	6408
2	3396	1.86064	6444
2	3407	1.86608	6480
2	3408	1.86608	6516
2	3419	1.87152	6552
2	3420	1.87152	6588
2	3431	1.87696	6624
2	3432	1.87696	6660
2	3443	1.8824	6696
2	3444	1.8824	6732
2	3455	1.88784	6768
2	3456	1.88784	6804
2	3467	1.89328	6840
2	3468	1.89328	6876
2	3479	1.89872	6912
2	3480	1.89872	6948
2	3509	1.90416	6984
2	3510	1.90416	7020
2	3521	1.9096	7056
2	3522	1.9096	7092
2	3533	1.91504	7128
2	3534	1.91504	7164
2	3545	1.92048	7200
2	3546	1.92048	7236
2	3557	1.92592	7272
2	3558	1.92592	7308
2	3569	1.93136	7344
2	3570	1.93136	7380
2	3581	1.9368	7416
2	3582	1.9368	7452
2	3593	1.94224	7488
2	3594	1.94224	7524
2	3605	1.94768	7560
2	3606	1.94768	7596
2	3626	1.95312	7632
2	3627	1.95312	7668
2	3638	1.95856	7704
2	3639	1.95856	7740
2	3650	1.964	7776
2	3651	1.964	7812
2	3662	1.96944	7848
2	3663	1.96944	7884
2	3674	1.97488	7920
2	3675	1.97488	7956
2	3686	1.98032	7992
2	3687	1.98032	8028
2	3698	1.98576	8064
2	3699	1.98576	8100
2	3710	1.9912	8136
2	3711	1.9912	8172
2	3722	1.99664	8208
2	3723	1.99664	8244
2	3752	2.00208	8280
2	3753	2.00208	8316
2	3764	2.00752	8352
2	3765	2.00752	8388
2	3776	2.01296	8424
2	3777	2.01296	8460
2	3788	2.0184	8496
2	3789	2.0184	8532
2	3800	2.02384	8568
2	3801	2.02384	8604
2	3812	2.02928	8640
2	3813	2.02928	8676
2	3824	2.03472	8712
2	3825	2.03472	8748
2	3836	2.04016	8784
2	3837	2.04016	8820
2	3848	2.0456	8856
2	3849	2.0456	8892
2	3871	2.05104	8928
2	3872	2.05104	8964
2	3883	2.05648	9000
2	3884	2.05648	9036
2	3895	2.06192	9072
2	3896	2.06192	9108
2	3907	2.06736	9144
2	3908	2.06736	9180
2	3919	2.0728	9216
2	3920	2.0728	9252
2	3931	2.07824	9288
2	3932	2.07824	9324
2	3943	2.08368	9360
2	3944	2.08368	9396
2	3955	2.08912	9432
2	3956	2.08912	9468
2	3967	2.09456	9504
2	3968	2.09456	9540
2	3997	2.1	9576
2	3998	2.1	9612
2	4009	2.10544	9648
2	4010	2.10544	9684
2	4021	2.11088	9720
2	4022	2.11088	9756
2	4033	2.11632	9792
2	4034	2.11632	9828
2	4045	2.12176	9864
2	4046	2.12176	9900
2	4057	2.1272	9936
2	4058	2.1272	9972
2	4069	2.13264	10008
2	4070	2.13264	10044
2	4081	2.13808	10080
2	4082	2.13808	10116
2	4093	2.14352	10152
2	4094	2.14352	10188
2	4105	2.14896	10224
2	4106	2.14896	10260
2	4126	2.1544	10296
2	4127	2.1544	10332
2	4138	2.15984	10368
2	4139	2.15984	10404
2	4150	2.16528	10440
2	4151	2.16528	10476
2	4162	2.17072	10512
2	4163	2.17072	10548
2	4174	2.17616	10584
2	4175	2.17616	10620
2	4186	2.1816	10656
2	4187	2.1816	10692
2	4198	2.18704	10728
2	4199	2.18704	10764
2	4210	2.19248	10800
2	4211	2.19248	10836
2	4222	2.19792	10872
2	4223	2.19792	10908
2	4252	2.20336	10944
2	4253	2.20336	10980
2	4264	2.2088	11016
2	4265	2.2088	11052
2	4276	2.21424	11088
2	4277	2.21424	11124
2	4288	2.21968	11160
2	4289	2.21968	11196
2	4300	2.22512	11232
2	4301	2.22512	11268
2	4312	2.23056	11304
2	4313	2.23056	11340
2	4324	2.236	11376
2	4325	2.236	11412
2	4336	2.24144	11448
2	4337	2.24144	11484
2	4348	2.24688	11520
2	4349	2.24688	11556
2	4369	2.25232	11592
2	4370	2.25232	11628
2	4381	2.25776	11664
2	4382	2.25776	11700
2	4393	2.2632	11736
2	4394	2.2632	11772
2	4405	2.26864	11808
2	4406	2.26864	11844
2	4417	2.27408	11880
2	4418	2.27408	11916
2	4429	2.27952	11952
2	4430	2.27952	11988
2	4441	2.28496	12024
2	4442	2.28496	12060
2	4453	2.2904	12096
2	4454	2.2904	12132
2	4465	2.29584	12168
2	4466	2.29584	12204
2	4495	2.30128	12240
2	4496	2.30128	12276
2	4507	2.30672	12312
2	4508	2.30672	12348
2	4519	2.31216	12384
2	4520	2.31216	12420
2	4744	2.32224	12456
2	4766	2.32768	12492
2	4784	2.33312	12528
2	4802	2.33856	12564
2	4820	2.344	12600
2	4838	2.34944	12636
2	4865	2.35488	12672
2	4883	2.36032	12708
2	4901	2.36576	12744
2	4923	2.3712	12780
2	4941	2.37664	12816
2	4959	2.38208	12852
2	4977	2.38752	12888
2	4995	2.39296	12924
2	5013	2.3984	12960
2	5049	2.40384	12996
2	5067	2.40928	13032
2	5089	2.41472	13068
2	5107	2.42016	13104
2	5125	2.4256	13140
2	5143	2.43104	13176
2	5161	2.43648	13212
2	5179	2.44192	13248
2	5197	2.44736	13284
2	5224	2.4528	13320
2	5246	2.45824	13356
2	5264	2.46368	13392
2	5282	2.46912	13428
2	5300	2.47456	13464
2	5318	2.48	13500
2	5336	2.48544	13536
2	5354	2.49088	13572
2	5372	2.49632	13608
2	5412	2.50176	13644
2	5430	2.5072	13680
2	5448	2.51264	13716
2	5466	2.51808	13752
2	5484	2.52352	13788
2	5502	2.52896	13824
2	5520	2.5344	13860
2	5538	2.53984	13896
2	5560	2.54528	13932
2	5587	2.55072	13968
2	5605	2.55616	14004
2	5623	2.5616	14040
2	5641	2.56704	14076
2	5655	2.57248	14112
2	5661	2.5736	14148
2	5671	2.57792	14184
2	5677	2.57904	14220
2	5687	2.58336	14256
2	5693	2.58448	14292
2	5703	2.5888	14328
2	5709	2.58992	14364
2	5719	2.59424	14400
2	5725	2.59536	14436
2	5735	2.59968	14472
2	5759	2.6008	14508
2	5769	2.60512	14544
2	5775	2.60624	14580
2	5785	2.61056	14616
2	5791	2.61168	14652
2	5801	2.616	14688
2	5807	2.61712	14724
2	5817	2.62144	14760
2	5823	2.62256	14796
2	5833	2.62688	14832
2	5839	2.628	14868
2	5849	2.63232	14904
2	5855	2.63344	14940
2	5865	2.63776	14976
2	5871	2.63888	15012
2	5881	2.6432	15048
2	5887	2.64432	15084
2	5897	2.64864	15120
2	5903	2.64976	15156
2	5922	2.65408	15192
2	5928	2.6552	15228
2	5938	2.65952	15264
2	5944	2.66064	15300
2	5954	2.66496	15336
2	5960	2.66608	15372
2	5970	2.6704	15408
2	5976	2.67152	15444
2	5986	2.67584	15480
2	5992	2.67696	15516
2	6002	2.68128	15552
2	6008	2.6824	15588
2	6018	2.68672	15624
2	6024	2.68784	15660
2	6034	2.69216	15696
2	6040	2.69328	15732
2	6050	2.6976	15768
2	6056	2.69872	15804
2	6084	2.70304	15840
2	6090	2.70416	15876
2	6100	2.70848	15912
2	6106	2.7096	15948
2	6116	2.71392	15984
2	6122	2.71504	16020
2	6132	2.71936	16056
2	6138	2.72048	16092
2	6148	2.7248	16128
2	6154	2.72592	16164
2	6164	2.73024	16200
2	6170	2.73136	16236
2	6180	2.73568	16272
2	6186	2.7368	16308
2	6196	2.74112	16344
2	6202	2.74224	16380
2	6212	2.74656	16416
2	6218	2.74768	16452
2	6237	2.752	16488
2	6243	2.75312	16524
2	6253	2.75744	16560
2	6259	2.75856	16596
2	6269	2.76288	16632
2	6275	2.764	16668
2	6285	2.76832	16704
2	6291	2.76944	16740
2	6301	2.77376	16776
2	6307	2.77488	16812
2	6317	2.7792	16848
2	6323	2.78032	16884
2	6333	2.78464	16920
2	6339	2.78576	16956
2	6349	2.79008	16992
2	6355	2.7912	17028
2	6365	2.79552	17064
2	6371	2.79664	17100
2	6399	2.80096	17136
2	6405	2.80208	17172
2	6415	2.8064	17208
2	6421	2.80752	17244
2	6431	2.81184	17280
2	6437	2.81296	17316
2	6447	2.81728	17352
2	6453	2.8184	17388
2	6463	2.82272	17424
2	6469	2.82384	17460
2	6479	2.82816	17496
2	6485	2.82928	17532
2	6495	2.8336	17568
2	6501	2.83472	17604
2	6511	2.83904	17640
2	6517	2.84016	17676
2	6527	2.84448	17712
2	6533	2.8456	17748
2	6543	2.84992	17784
2	6560	2.85104	17820
2	6570	2.85536	17856
2	6576	2.85648	17892
2	6586	2.8608	17928
2	6592	2.86192	17964
2	6610	2.86736	18000
2	6624	2.8728	18036
2	6641	2.87824	18072
2	6654	2.88368	18108
2	6872	2.88912	18144
2	6886	2.89456	18180
2	6918	2.9	18216
2	6932	2.90544	18252
2	6946	2.91088	18288
2	6960	2.91632	18324
2	6974	2.92176	18360
2	6988	2.9272	18396
2	7002	2.93264	18432
2	7016	2.93808	18468
2	7033	2.94352	18504
2	7048	2.94896	18540
2	7071	2.9544	18576
2	7085	2.95984	18612
2	7099	2.96528	18648
2	7113	2.97072	18684
2	7127	2.97616	18720
2	7141	2.9816	18756
2	7158	2.98704	18792
2	7173	2.99248	18828
2	7187	2.99792	18864
2	7221	3.00336	18900
2	7238	3.0088	18936
2	7459	3.01424	18972
2	7476	3.01968	19008
2	7491	3.02512	19044
2	7505	3.03056	19080
2	7519	3.036	19116
2	7533	3.04144	19152
2	7547	3.04688	19188
2	7570	3.05232	19224
2	7584	3.05776	19260
2	7601	3.0632	19296
2	7616	3.06864	19332
2	7630	3.07408	19368
2	7644	3.07952	19404
2	7658	3.08496	19440
2	7672	3.0904	19476
2	7686	3.09584	19512
2	7722	3.10128	19548
2	7739	3.10672	19584
2	7754	3.11216	19620
2	8293	3.2888	19656
2	8303	3.29424	19692
2	8313	3.29968	19728
2	8341	3.30512	19764
2	8351	3.31056	19800
2	8361	3.316	19836
2	8371	3.32144	19872
2	8381	3.32688	19908
2	8391	3.33232	19944
2	8401	3.33776	19980
2	8411	3.3432	20016
2	8421	3.34864	20052
2	8442	3.35408	20088
2	8452	3.35952	20124
2	8462	3.36496	20160
2	8472	3.3704	20196
2	8482	3.37584	20232
2	8492	3.38128	20268
2	8502	3.38672	20304
2	8512	3.39216	20340
2	8522	3.3976	20376
2	8552	3.40304	20412
2	8562	3.40848	20448
2	8572	3.41392	20484
2	8582	3.41936	20520
2	8592	3.4248	20556
2	8602	3.43024	20592
2	8612	3.43568	20628
2	8622	3.44112	20664
2	8632	3.44656	20700
2	8651	3.452	20736
2	8661	3.45744	20772
2	8671	3.46288	20808
2	8681	3.46832	20844
2	8691	3.47376	20880
2	8701	3.4792	20916
2	8711	3.48464	20952
2	8721	3.49008	20988
2	8731	3.49552	21024
2	8759	3.50096	21060
2	8769	3.5064	21096
2	8779	3.51184	21132
2	8789	3.51728	21168
2	8799	3.52272	21204
2	8809	3.52816	21240
2	8819	3.5336	21276
2	8829	3.53904	21312
2	8839	3.54448	21348
2	8849	3.54992	21384
2	8868	3.55536	21420
2	8878	3.5608	21456
2	8888	3.56624	21492
2	8898	3.57168	21528
2	8908	3.57712	21564
2	8918	3.58256	21600
2	8928	3.588	21636
2	8938	3.59344	21672
2	8948	3.59888	21708
2	8976	3.60432	21744
2	8986	3.60976	21780
2	8996	3.6152	21816
2	9006	3.62064	21852
2	9016	3.62608	21888
2	9026	3.63152	21924
2	9036	3.63696	21960
2	9046	3.6424	21996
2	9056	3.64784	22032
2	9075	3.65328	22068
2	9085	3.65872	22104
2	9095	3.66416	22140
2	9105	3.6696	22176
2	9115	3.67504	22212
2	9125	3.68048	22248
2	9135	3.68592	22284
2	9145	3.69136	22320
2	9155	3.6968	22356
2	9183	3.70224	22392
2	9193	3.70768	22428
2	9203	3.71312	22464
2	9213	3.71856	22500
2	9223	3.724	22536
2	9233	3.72944	22572
2	9243	3.73488	22608
2	9253	3.74032	22644
2	9263	3.74576	22680
2	9282	3.7512	22716
2	9292	3.75664	22752
2	9302	3.76208	22788
2	9312	3.76752	22824
2	9322	3.77296	22860
2	9332	3.7784	22896
2	9342	3.78384	22932
2	9352	3.78928	22968
2	9362	3.79472	23004
2	9390	3.80016	23040
2	9400	3.8056	23076
2	9410	3.81104	23112
2	9420	3.81648	23148
2	9430	3.82192	23184
2	9440	3.82736	23220
2	9555	3.89632	23256
2	9583	3.90176	23292
2	9593	3.9072	23328
2	9603	3.91264	23364
2	9613	3.91808	23400
2	9623	3.92352	23436
2	9633	3.92896	23472
2	9643	3.9344	23508
2	9653	3.93984	23544
2	9663	3.94528	23580
2	9682	3.95072	23616
2	9692	3.95616	23652
2	9702	3.9616	23688
2	9712	3.96704	23724
2	9722	3.97248	23760
2	9732	3.97792	23796
2	9742	3.98336	23832
2	9752	3.9888	23868
2	9762	3.99424	23904
2	9772	3.99968	23940
2	9800	4.00512	23976
2	9810	4.01056	24012
2	9820	4.016	24048
2	9830	4.02144	24084
2	9840	4.02688	24120
2	9850	4.03232	24156
2	9860	4.03776	24192
2	9870	4.0432	24228
2	9880	4.04864	24264
2	9899	4.05408	24300
2	9909	4.05952	24336
2	9919	4.06496	24372
2	9929	4.0704	24408
2	9939	4.07584	24444
2	9949	4.08128	24480
2	9959	4.08672	24516
2	9969	4.09216	24552
2	9979	4.0976	24588
2	10007	4.10304	24624
2	10017	4.10848	24660
2	10027	4.11392	24696
2	10037	4.11936	24732
2	10047	4.1248	24768
2	10057	4.13024	24804
2	10067	4.13568	24840
2	10077	4.14112	24876
2	10087	4.14656	24912
2	10106	4.152	24948
2	10116	4.15744	24984
2	10126	4.16288	25020
2	10136	4.16832	25056
2	10146	4.17376	25092
2	10156	4.1792	25128
2	10166	4.18464	25164
2	10176	4.19008	25200
2	10186	4.19552	25236
2	10214	4.20096	25272
2	10224	4.2064	25308
2	10234	4.21184	25344
2	10244	4.21728	25380
2	10254	4.22272	25416
2	10264	4.22816	25452
2	10274	4.2336	25488
2	10284	4.23904	25524
2	10294	4.24448	25560
2	10304	4.24992	25596
2	10323	4.25536	25632
2	10333	4.2608	25668
2	10343	4.26624	25704
2	10353	4.27168	25740
2	10363	4.27712	25776
2	10373	4.28256	25812
2	10383	4.288	25848
2	10393	4.29344	25884
2	10403	4.29888	25920
2	10431	4.30432	25956
2	10441	4.30976	25992
2	10451	4.3152	26028
2	10461	4.32064	26064
2	10471	4.32608	26100
2	10481	4.33152	26136
2	10491	4.33696	26172
2	10501	4.3424	26208
2	10511	4.34784	26244
2	10530	4.35328	26280
2	10540	4.35872	26316
2	10550	4.36416	26352
2	10560	4.3696	26388
2	10570	4.37504	26424
2	10580	4.38048	26460
2	10590	4.38592	26496
2	10600	4.39136	26532
2	10610	4.3968	26568
2	10640	4.40224	26604
2	10657	4.40768	26640
2	10667	4.41312	26676
2	10677	4.41856	26712
2	10687	4.424	26748
2	10697	4.42944	26784
2	10707	4.43488	26820
2	11220	4.49808	26856
2	11221	4.49808	26892
2	11250	4.50352	26928
2	11251	4.50352	26964
2	11262	4.50896	27000
2	11263	4.50896	27036
2	11274	4.5144	27072
2	11275	4.5144	27108
2	11286	4.51984	27144
2	11287	4.51984	27180
2	11298	4.52528	27216
2	11299	4.52528	27252
2	11310	4.53072	27288
2	11311	4.53072	27324
2	11322	4.53616	27360
2	11323	4.53616	27396
2	11334	4.5416	27432
2	11335	4.5416	27468
2	11346	4.54704	27504
2	11347	4.54704	27540
2	11371	4.55248	27576
2	11372	4.55248	27612
2	11390	4.55792	27648
2	11391	4.55792	27684
2	11402	4.56336	27720
2	11403	4.56336	27756
2	11414	4.5688	27792
2	11415	4.5688	27828
2	11426	4.57424	27864
2	11427	4.57424	27900
2	11438	4.57968	27936
2	11439	4.57968	27972
2	11450	4.58512	28008
2	11451	4.58512	28044
2	11462	4.59056	28080
2	11463	4.59056	28116
2	11474	4.596	28152
2	11475	4.596	28188
2	11504	4.60144	28224
2	11505	4.60144	28260
2	11516	4.60688	28296
2	11517	4.60688	28332
2	11528	4.61232	28368
2	11529	4.61232	28404
2	11540	4.61776	28440
2	11541	4.61776	28476
2	11552	4.6232	28512
2	11553	4.6232	28548
2	11564	4.62864	28584
2	11565	4.62864	28620
2	11576	4.63408	28656
2	11577	4.63408	28692
2	11588	4.63952	28728
2	11589	4.63952	28764
2	11600	4.64496	28800
2	11601	4.64496	28836
2	11623	4.6504	28872
2	11624	4.6504	28908
2	11635	4.65584	28944
2	11636	4.65584	28980
2	11647	4.66128	29016
2	11648	4.66128	29052
2	11659	4.66672	29088
2	11660	4.66672	29124
2	11671	4.67216	29160
2	11672	4.67216	29196
2	11683	4.6776	29232
2	11684	4.6776	29268
2	11695	4.68304	29304
2	11696	4.68304	29340
2	11707	4.68848	29376
2	11708	4.68848	29412
2	11719	4.69392	29448
2	11720	4.69392	29484
2	11731	4.69936	29520
2	11732	4.69936	29556
2	11763	4.7048	29592
2	11764	4.7048	29628
2	11775	4.71024	29664
2	11776	4.71024	29700
2	11787	4.71568	29736
2	11788	4.71568	29772
2	11799	4.72112	29808
2	11800	4.72112	29844
2	11811	4.72656	29880
2	11812	4.72656	29916
2	11823	4.732	29952
2	11824	4.732	29988
2	11835	4.73744	30024
2	11836	4.73744	30060
2	11847	4.74288	30096
2	11848	4.74288	30132
2	11859	4.74832	30168
2	11860	4.74832	30204
2	11880	4.75376	30240
2	11881	4.75376	30276
2	11892	4.7592	30312
2	11893	4.7592	30348
2	11904	4.76464	30384
2	11905	4.76464	30420
2	11916	4.77008	30456
2	11917	4.77008	30492
2	11928	4.77552	30528
2	11929	4.77552	30564
2	11940	4.78096	30600
2	11941	4.78096	30636
2	11952	4.7864	30672
2	11953	4.7864	30708
2	11964	4.79184	30744
2	11965	4.79184	30780
2	11976	4.79728	30816
2	11977	4.79728	30852
2	12006	4.80272	30888
2	12007	4.80272	30924
2	12018	4.80816	30960
2	12019	4.80816	30996
2	12030	4.8136	31032
2	12031	4.8136	31068
2	12042	4.81904	31104
2	12043	4.81904	31140
2	12054	4.82448	31176
2	12055	4.82448	31212
2	12066	4.82992	31248
2	12067	4.82992	31284
2	12078	4.83536	31320
2	12079	4.83536	31356
2	12090	4.8408	31392
2	12091	4.8408	31428
2	12102	4.84624	31464
2	12103	4.84624	31500
2	12123	4.85168	31536
2	12124	4.85168	31572
2	12135	4.85712	31608
2	12136	4.85712	31644
2	12147	4.86256	31680
2	12148	4.86256	31716
2	12159	4.868	31752
2	12160	4.868	31788
2	12171	4.87344	31824
2	12172	4.87344	31860
2	12183	4.87888	31896
2	12184	4.87888	31932
2	12195	4.88432	31968
2	12196	4.88432	32004
2	12207	4.88976	32040
2	12208	4.88976	32076
2	12219	4.8952	32112
2	12220	4.8952	32148
2	12249	4.90064	32184
2	12250	4.90064	32220
2	12261	4.90608	32256
2	12262	4.90608	32292
2	12273	4.91152	32328
2	12274	4.91152	32364
2	12285	4.91696	32400
2	12286	4.91696	32436
2	12297	4.9224	32472
2	12298	4.9224	32508
2	12309	4.92784	32544
2	12310	4.92784	32580
2	12321	4.93328	32616
2	12322	4.93328	32652
2	12333	4.93872	32688
2	12334	4.93872	32724
2	12345	4.94416	32760
2	12346	4.94416	32796
2	12357	4.9496	32832
2	12358	4.9496	32868
2	12378	4.95504	32904
2	12379	4.95504	32940
2	12390	4.96048	32976
2	12391	4.96048	33012
2	12402	4.96592	33048
2	12403	4.96592	33084
2	12414	4.97136	33120
2	12415	4.97136	33156
2	12426	4.9768	33192
2	12427	4.9768	33228
2	12438	4.98224	33264
2	12439	4.98224	33300
2	12450	4.98768	33336
2	12451	4.98768	33372
2	12462	4.99312	33408
2	12463	4.99312	33444
2	12474	4.99856	33480
2	12475	4.99856	33516
2	12504	5.004	33552
2	12505	5.004	33588
2	12516	5.00944	33624
2	12517	5.00944	33660
2	12528	5.01488	33696
2	12529	5.01488	33732
2	12540	5.02032	33768
2	12541	5.02032	33804
2	12552	5.02576	33840
2	12553	5.02576	33876
2	12564	5.0312	33912
2	12565	5.0312	33948
2	12576	5.03664	33984
2	12577	5.03664	34020
2	13483	5.06944	34056
2	13497	5.07488	34092
2	13515	5.08032	34128
2	13529	5.08576	34164
2	13543	5.0912	34200
2	13557	5.09664	34236
2	13589	5.10208	34272
2	13603	5.10752	34308
2	13620	5.11296	34344
2	13634	5.1184	34380
2	13648	5.12384	34416
2	13662	5.12928	34452
2	13676	5.13472	34488
2	13690	5.14016	34524
2	13704	5.1456	34560
2	13727	5.15104	34596
2	13745	5.15648	34632
2	13759	5.16192	34668
2	13773	5.16736	34704
2	13787	5.1728	34740
2	13801	5.17824	34776
2	13815	5.18368	34812
2	13829	5.18912	34848
2	13843	5.19456	34884
2	13881	5.2	34920
2	13904	5.20544	34956
2	13918	5.21088	34992
2	13932	5.21632	35028
2	13946	5.22176	35064
2	13960	5.2272	35100
2	13974	5.23264	35136
2	13988	5.23808	35172
2	14006	5.24352	35208
2	14020	5.24896	35244
2	14045	5.2544	35280
2	14059	5.25984	35316
2	14073	5.26528	35352
2	14087	5.27072	35388
2	14101	5.27616	35424
2	14115	5.2816	35460
2	14133	5.28704	35496
2	14147	5.29248	35532
2	14161	5.29792	35568
2	14185	5.30256	35604
2	14191	5.30336	35640
2	14197	5.308	35676
2	14203	5.3088	35712
2	14209	5.31344	35748
2	14215	5.31424	35784
2	14221	5.31888	35820
2	14227	5.31968	35856
2	14233	5.32432	35892
2	14239	5.32512	35928
2	14245	5.32976	35964
2	14251	5.33056	36000
2	14257	5.3352	36036
2	14263	5.336	36072
2	14269	5.34064	36108
2	14275	5.34144	36144
2	14281	5.34608	36180
2	14287	5.34688	36216
2	14304	5.35152	36252
2	14310	5.35232	36288
2	14316	5.35696	36324
2	14322	5.35776	36360
2	14328	5.3624	36396
2	14334	5.3632	36432
2	14340	5.36784	36468
2	14346	5.36864	36504
2	14352	5.37328	36540
2	14358	5.37408	36576
2	14364	5.37872	36612
2	14370	5.37952	36648
2	14376	5.38416	36684
2	14382	5.38496	36720
2	14388	5.3896	36756
2	14394	5.3904	36792
2	14400	5.39504	36828
2	14406	5.39584	36864
2	14430	5.40048	36900
2	14436	5.40128	36936
2	14442	5.40592	36972
2	14448	5.40672	37008
2	14454	5.41136	37044
2	14460	5.41216	37080
2	14466	5.4168	37116
2	14472	5.4176	37152
2	14478	5.42224	37188
2	14484	5.42304	37224
2	14490	5.42768	37260
2	14496	5.42848	37296
2	14502	5.43312	37332
2	14508	5.43392	37368
2	14514	5.43856	37404
2	14520	5.43936	37440
2	14526	5.444	37476
2	14532	5.4448	37512
2	14538	5.44944	37548
2	14553	5.45024	37584
2	14559	5.45488	37620
2	14565	5.45568	37656
2	14571	5.46032	37692
2	14577	5.46112	37728
2	14583	5.46576	37764
2	14589	5.46656	37800
2	14595	5.4712	37836
2	14601	5.472	37872
2	14607	5.47664	37908
2	14613	5.47744	37944
2	14619	5.48208	37980
2	14625	5.48288	38016
2	14631	5.48752	38052
2	14637	5.48832	38088
2	14643	5.49296	38124
2	14649	5.49376	38160
2	14655	5.4984	38196
2	14661	5.4992	38232
2	14685	5.50384	38268
2	14691	5.50464	38304
2	14697	5.50928	38340
2	14703	5.51008	38376
2	14709	5.51472	38412
2	14715	5.51552	38448
2	14721	5.52016	38484
2	14727	5.52096	38520
2	14733	5.5256	38556
2	14739	5.5264	38592
2	14745	5.53104	38628
2	14751	5.53184	38664
2	14757	5.53648	38700
2	14763	5.53728	38736
2	14769	5.54192	38772
2	14775	5.54272	38808
2	14781	5.54736	38844
2	14787	5.54816	38880
2	14802	5.5528	38916
2	14808	5.5536	38952
2	14814	5.55824	38988
2	14820	5.55904	39024
2	14826	5.56368	39060
2	14832	5.56448	39096
2	14838	5.56912	39132
2	14844	5.56992	39168
2	14850	5.57456	39204
2	14856	5.57536	39240
2	14862	5.58	39276
2	14868	5.5808	39312
2	14874	5.58544	39348
2	14880	5.58624	39384
2	14886	5.59088	39420
2	14892	5.59168	39456
2	14898	5.59632	39492
2	14904	5.59712	39528
2	14928	5.60176	39564
2	14934	5.60256	39600
2	14940	5.6072	39636
2	14946	5.608	39672
2	14956	5.61264	39708
2	14970	5.61808	39744
2	14988	5.62352	39780
2	15002	5.62896	39816
2	15016	5.6344	39852
2	15029	5.63984	39888
2	15042	5.64528	39924
2	15066	5.65072	39960
2	15080	5.65616	39996
2	15094	5.6616	40032
2	15108	5.66704	40068
2	15122	5.67248	40104
2	15136	5.67792	40140
2	15150	5.68336	40176
2	15167	5.6888	40212
2	15182	5.69424	40248
2	15196	5.69968	40284
2	15228	5.70512	40320
2	15242	5.71056	40356
2	15256	5.716	40392
2	15272	5.72144	40428
2	15491	5.72688	40464
2	15505	5.73232	40500
2	15519	5.73776	40536
2	15533	5.7432	40572
2	15547	5.74864	40608
2	15572	5.75408	40644
2	15586	5.75952	40680
2	15603	5.76496	40716
2	15618	5.7704	40752
2	15632	5.77584	40788
2	15646	5.78128	40824
2	15660	5.78672	40860
2	15674	5.79216	40896
2	15688	5.7976	40932
2	15720	5.80304	40968
2	15737	5.80848	41004
2	15752	5.81392	41040
2	15766	5.81936	41076
2	15780	5.8248	41112
2	15794	5.83024	41148
2	15808	5.83568	41184
2	15822	5.84112	41220
2	16059	5.8512	41256
2	16080	5.85664	41292
2	16094	5.86208	41328
2	16112	5.86752	41364
2	16126	5.87296	41400
2	16140	5.8784	41436
2	16146	5.88304	41472
2	16152	5.88384	41508
2	16162	5.88848	41544
2	16168	5.88928	41580
2	16178	5.89392	41616
2	16184	5.89472	41652
2	16194	5.89936	41688
2	16218	5.90016	41724
2	16228	5.9048	41760
2	16234	5.9056	41796
2	16244	5.91024	41832
2	16250	5.91104	41868
2	16260	5.91568	41904
2	16266	5.91648	41940
2	16276	5.92112	41976
2	16282	5.92192	42012
2	16292	5.92656	42048
2	16298	5.92736	42084
2	16308	5.932	42120
2	16314	5.9328	42156
2	16324	5.93744	42192
2	16330	5.93824	42228
2	16340	5.94288	42264
2	16346	5.94368	42300
2	16356	5.94832	42336
2	16362	5.94912	42372
2	16381	5.95376	42408
2	16387	5.95456	42444
2	16397	5.9592	42480
2	16403	5.96	42516
2	16413	5.96464	42552
2	16419	5.96544	42588
2	16429	5.97008	42624
2	16435	5.97088	42660
2	16445	5.97552	42696
2	16451	5.97632	42732
2	16461	5.98096	42768
2	16467	5.98176	42804
2	16477	5.9864	42840
2	16483	5.9872	42876
2	16493	5.99184	42912
2	16499	5.99264	42948
2	16509	5.99728	42984
2	16515	5.99808	43020
2	16545	6.00272	43056
2	16551	6.00352	43092
2	16561	6.00816	43128
2	16567	6.00896	43164
2	16577	6.0136	43200
2	16583	6.0144	43236
2	16593	6.01904	43272
2	16599	6.01984	43308
2	16609	6.02448	43344
2	16615	6.02528	43380
2	16625	6.02992	43416
2	16631	6.03072	43452
2	16641	6.03536	43488
2	16647	6.03616	43524
2	16657	6.0408	43560
2	16663	6.0416	43596
2	16673	6.04624	43632
2	16679	6.04704	43668
2	16698	6.05168	43704
2	16704	6.05248	43740
2	16714	6.05712	43776
2	16720	6.05792	43812
2	16730	6.06256	43848
2	16736	6.06336	43884
2	16746	6.068	43920
2	16752	6.0688	43956
2	16762	6.07344	43992
2	16768	6.07424	44028
2	16778	6.07888	44064
2	16784	6.07968	44100
2	16794	6.08432	44136
2	16800	6.08512	44172
2	16810	6.08976	44208
2	16816	6.09056	44244
2	16826	6.0952	44280
2	16832	6.096	44316
2	16860	6.10064	44352
2	16866	6.10144	44388
2	16876	6.10608	44424
2	16882	6.10688	44460
2	16892	6.11152	44496
2	16898	6.11232	44532
2	16908	6.11696	44568
2	16914	6.11776	44604
2	16924	6.1224	44640
2	16930	6.1232	44676
2	16940	6.12784	44712
2	16946	6.12864	44748
2	16956	6.13328	44784
2	16962	6.13408	44820
2	16972	6.13872	44856
2	16978	6.13952	44892
2	16988	6.14416	44928
2	16994	6.14496	44964
2	17004	6.1496	45000
2	17019	6.1504	45036
2	17029	6.15504	45072
2	17035	6.15584	45108
2	17045	6.16048	45144
2	17051	6.16128	45180
2	17061	6.16592	45216
2	17067	6.16672	45252
2	17077	6.17136	45288
2	17083	6.17216	45324
2	17093	6.1768	45360
2	17099	6.1776	45396
2	17109	6.18224	45432
2	17115	6.18304	45468
2	17125	6.18768	45504
2	17131	6.18848	45540
2	17141	6.19312	45576
2	17147	6.19392	45612
2	17157	6.19856	45648
2	17163	6.19936	45684
2	17191	6.204	45720
2	17197	6.2048	45756
2	17207	6.20944	45792
2	17213	6.21024	45828
2	17223	6.21488	45864
2	17229	6.21568	45900
2	17239	6.22032	45936
2	17245	6.22112	45972
2	17255	6.22576	46008
2	17261	6.22656	46044
2	17271	6.2312	46080
2	17277	6.232	46116
2	17287	6.23664	46152
2	17293	6.23744	46188
2	17303	6.24208	46224
2	17309	6.24288	46260
2	17319	6.24752	46296
2	17325	6.24832	46332
2	17344	6.25296	46368
2	17350	6.25376	46404
2	17360	6.2584	46440
2	17366	6.2592	46476
2	17376	6.26384	46512
2	17382	6.26464	46548
2	17392	6.26928	46584
2	17398	6.27008	46620
2	17408	6.27472	46656
2	17414	6.27552	46692
2	17424	6.28016	46728
2	17430	6.28096	46764
2	17440	6.2856	46800
2	17446	6.2864	46836
2	17456	6.29104	46872
2	17462	6.29184	46908
2	17472	6.29648	46944
2	17478	6.29728	46980
2	17506	6.30192	47016
2	17512	6.30272	47052
2	17522	6.30736	47088
2	17528	6.30816	47124
2	17538	6.3128	47160
2	17544	6.3136	47196
2	17554	6.31824	47232
2	17560	6.31904	47268
2	17570	6.32368	47304
2	17576	6.32448	47340
2	17586	6.32912	47376
2	17592	6.32992	47412
2	17602	6.33456	47448
2	17608	6.33536	47484
2	17618	6.34	47520
2	17624	6.3408	47556
2	17634	6.34544	47592
2	17640	6.34624	47628
2	17659	6.35088	47664
2	17665	6.35168	47700
2	17675	6.35632	47736
2	17681	6.35712	47772
2	17691	6.36176	47808
2	17697	6.36256	47844
2	17707	6.3672	47880
2	17713	6.368	47916
2	17723	6.37264	47952
2	17729	6.37344	47988
2	17739	6.37808	48024
2	17745	6.37888	48060
2	17755	6.38352	48096
2	17761	6.38432	48132
2	17771	6.38896	48168
2	17777	6.38976	48204
2	17791	6.3944	48240
2	17809	6.39984	48276
2	17849	6.40528	48312
2	17867	6.41072	48348
2	17885	6.41616	48384
2	17903	6.4216	48420
2	17921	6.42704	48456
2	17939	6.43248	48492
2	17957	6.43792	48528
2	17975	6.44336	48564
2	17997	6.4488	48600
2	18020	6.45424	48636
2	18041	6.45968	48672
2	18059	6.46512	48708
2	18077	6.47056	48744
2	18095	6.476	48780
2	18117	6.48144	48816
2	18135	6.48688	48852
2	18153	6.49232	48888
2	18171	6.49776	48924
2	18207	6.5032	48960
2	18225	6.50864	48996
2	18243	6.51408	49032
2	18261	6.51952	49068
2	18283	6.52496	49104
2	18301	6.5304	49140
2	18319	6.53584	49176
2	18337	6.54128	49212
2	18355	6.54672	49248
2	18382	6.55216	49284
2	18400	6.5576	49320
2	18418	6.56304	49356
2	18440	6.56848	49392
2	18458	6.57392	49428
2	18476	6.57936	49464
2	18494	6.5848	49500
2	18512	6.59024	49536
2	18530	6.59568	49572
2	18568	6.60112	49608
2	18586	6.60656	49644
2	18608	6.612	49680
2	18626	6.61744	49716
2	18644	6.62288	49752
2	18662	6.62832	49788
2	18680	6.63376	49824
2	18698	6.6392	49860
2	18716	6.64464	49896
2	18743	6.65008	49932
2	18961	6.65552	49968
2	18978	6.66096	50004
2	18988	6.6664	50040
2	18998	6.67184	50076
2	19008	6.67728	50112
2	19018	6.68272	50148
2	19028	6.68816	50184
2	19038	6.6936	50220
2	19048	6.69904	50256
2	19076	6.70448	50292
2	19086	6.70992	50328
2	19096	6.71536	50364
2	19106	6.7208	50400
2	19116	6.72624	50436
2	19126	6.73168	50472
2	19136	6.73712	50508
2	19146	6.74256	50544
2	19156	6.748	50580
2	19175	6.75344	50616
2	19185	6.75888	50652
2	19195	6.76432	50688
2	19205	6.76976	50724
2	19215	6.7752	50760
2	19225	6.78064	50796
2	19235	6.78608	50832
2	19245	6.79152	50868
2	19255	6.79696	50904
2	19283	6.8024	50940
2	19293	6.80784	50976
2	19303	6.81328	51012
2	19313	6.81872	51048
2	19323	6.82416	51084
2	19333	6.8296	51120
2	19343	6.83504	51156
2	19353	6.84048	51192
2	19363	6.84592	51228
2	19384	6.85136	51264
2	19394	6.8568	51300
2	19404	6.86224	51336
2	19414	6.86768	51372
2	19424	6.87312	51408
2	19434	6.87856	51444
2	19444	6.884	51480
2	19454	6.88944	51516
2	19464	6.89488	51552
2	19492	6.90032	51588
2	19502	6.90576	51624
2	19512	6.9112	51660
2	19522	6.91664	51696
2	19532	6.92208	51732
2	19542	6.92752	51768
2	19552	6.93296	51804
2	19562	6.9384	51840
2	19572	6.94384	51876
2	19582	6.94928	51912
2	19601	6.95472	51948
2	19611	6.96016	51984
2	19621	6.9656	52020
2	19839	6.97568	52056
2	19852	6.98112	52092
2	19866	6.98656	52128
2	19880	6.992	52164
2	19898	6.99744	52200
2	19930	7.00288	52236
2	19943	7.00832	52272
2	20161	7.01376	52308
2	20175	7.0192	52344
2	20189	7.02464	52380
2	20207	7.03008	52416
2	20221	7.03552	52452
2	20235	7.04096	52488
2	20249	7.0464	52524
2	20272	7.05184	52560
2	20286	7.05728	52596
2	20300	7.06272	52632
2	20314	7.06816	52668
2	20332	7.0736	52704
2	20346	7.07904	52740
2	20360	7.08448	52776
2	20374	7.08992	52812
2	20388	7.09536	52848
2	20422	7.1008	52884
2	20436	7.10624	52920
2	20450	7.11168	52956
2	20468	7.11712	52992
2	20482	7.12256	53028
2	20496	7.128	53064
2	20510	7.13344	53100
2	20524	7.13888	53136
2	20538	7.14432	53172
2	20552	7.14976	53208
2	20584	7.1552	53244
2	20602	7.16064	53280
2	20616	7.16608	53316
2	20630	7.17152	53352
2	20644	7.17696	53388
2	20658	7.1824	53424
2	20668	7.18784	53460
2	20674	7.18896	53496
2	20684	7.19328	53532
2	20690	7.1944	53568
2	20700	7.19872	53604
2	20706	7.19984	53640
2	20734	7.20416	53676
2	20740	7.20528	53712
2	20750	7.2096	53748
2	20756	7.21072	53784
2	20766	7.21504	53820
2	20772	7.21616	53856
2	20782	7.22048	53892
2	20788	7.2216	53928
2	20798	7.22592	53964
2	20804	7.22704	54000
2	20814	7.23136	54036
2	20820	7.23248	54072
2	20830	7.2368	54108
2	20836	7.23792	54144
2	20846	7.24224	54180
2	20852	7.24336	54216
2	20862	7.24768	54252
2	20868	7.2488	54288
2	20887	7.25312	54324
2	20893	7.25424	54360
2	20903	7.25856	54396
2	20909	7.25968	54432
2	20919	7.264	54468
2	20925	7.26512	54504
2	20935	7.26944	54540
2	20941	7.27056	54576
2	20951	7.27488	54612
2	20957	7.276	54648
2	20967	7.28032	54684
2	20973	7.28144	54720
2	20983	7.28576	54756
2	20989	7.28688	54792
2	20999	7.2912	54828
2	21005	7.29232	54864
2	21015	7.29664	54900
2	21021	7.29776	54936
2	21051	7.30208	54972
2	21057	7.3032	55008
2	21067	7.30752	55044
2	21073	7.30864	55080
2	21083	7.31296	55116
2	21089	7.31408	55152
2	21099	7.3184	55188
2	21105	7.31952	55224
2	21115	7.32384	55260
2	21121	7.32496	55296
2	21131	7.32928	55332
2	21137	7.3304	55368
2	21147	7.33472	55404
2	21153	7.33584	55440
2	21163	7.34016	55476
2	21169	7.34128	55512
2	21179	7.3456	55548
2	21185	7.34672	55584
2	21204	7.35104	55620
2	21210	7.35216	55656
2	21220	7.35648	55692
2	21226	7.3576	55728
2	21236	7.36192	55764
2	21242	7.36304	55800
2	21252	7.36736	55836
2	21258	7.36848	55872
2	21268	7.3728	55908
2	21274	7.37392	55944
2	21284	7.37824	55980
2	21290	7.37936	56016
2	21300	7.38368	56052
2	21306	7.3848	56088
2	21316	7.38912	56124
2	21322	7.39024	56160
2	21332	7.39456	56196
2	21338	7.39568	56232
2	21366	7.4	56268
2	21372	7.40112	56304
2	21382	7.40544	56340
2	21388	7.40656	56376
2	21398	7.41088	56412
2	21404	7.412	56448
2	21414	7.41632	56484
2	21420	7.41744	56520
2	21430	7.42176	56556
2	21436	7.42288	56592
2	21446	7.4272	56628
2	21452	7.42832	56664
2	21462	7.43264	56700
2	21468	7.43376	56736
2	21478	7.43808	56772
2	21484	7.4392	56808
2	21494	7.44352	56844
2	21500	7.44464	56880
2	21510	7.44896	56916
2	21525	7.45008	56952
2	21535	7.4544	56988
2	21541	7.45552	57024
2	21551	7.45984	57060
2	21557	7.46096	57096
2	21567	7.46528	57132
2	21573	7.4664	57168
2	21583	7.47072	57204
2	21589	7.47184	57240
2	21599	7.47616	57276
2	21605	7.47728	57312
2	21615	7.4816	57348
2	21621	7.48272	57384
2	21631	7.48704	57420
2	21637	7.48816	57456
2	21647	7.49248	57492
2	21653	7.4936	57528
2	21663	7.49792	57564
2	21669	7.49904	57600
2	21697	7.50336	57636
2	21703	7.50448	57672
2	21713	7.5088	57708
2	21719	7.50992	57744
2	21729	7.51424	57780
2	21735	7.51536	57816
2	21949	7.5208	57852
2	21966	7.52624	57888
2	21976	7.53168	57924
2	21986	7.53712	57960
2	21996	7.54256	57996
2	22006	7.548	58032
2	22025	7.55344	58068
2	22035	7.55888	58104
2	22045	7.56432	58140
2	22055	7.56976	58176
2	22065	7.5752	58212
2	22075	7.58064	58248
2	22085	7.58608	58284
2	22095	7.59152	58320
2	22105	7.59696	58356
2	22133	7.6024	58392
2	22143	7.60784	58428
2	22153	7.61328	58464
2	22163	7.61872	58500
2	22173	7.62416	58536
2	22183	7.6296	58572
2	22193	7.63504	58608
2	22203	7.64048	58644
2	22213	7.64592	58680
2	22234	7.65136	58716
2	22244	7.6568	58752
2	22254	7.66224	58788
2	22264	7.66768	58824
2	22274	7.67312	58860
2	22284	7.67856	58896
2	22294	7.684	58932
2	22304	7.68944	58968
2	22314	7.69488	59004
2	22342	7.70032	59040
2	22352	7.70576	59076
2	22362	7.7112	59112
2	22372	7.71664	59148
2	22382	7.72208	59184
2	22392	7.72752	59220
2	22499	7.78928	59256
2	22509	7.79472	59292
2	22537	7.80016	59328
2	22547	7.8056	59364
2	22557	7.81104	59400
2	22567	7.81648	59436
2	22577	7.82192	59472
2	22587	7.82736	59508
2	22597	7.8328	59544
2	22607	7.83824	59580
2	22617	7.84368	59616
2	22627	7.84912	59652
2	22646	7.85456	59688
2	22656	7.86	59724
2	22666	7.86544	59760
2	22676	7.87088	59796
2	22686	7.87632	59832
2	22696	7.88176	59868
2	22706	7.8872	59904
2	22716	7.89264	59940
2	22726	7.89808	59976
2	22754	7.90352	60012
2	22764	7.90896	60048
2	22774	7.9144	60084
2	22784	7.91984	60120
2	22794	7.92528	60156
2	22804	7.93072	60192
2	22814	7.93616	60228
2	22824	7.9416	60264
2	22834	7.94704	60300
2	22853	7.95248	60336
2	22863	7.95792	60372
2	22873	7.96336	60408
2	22883	7.9688	60444
2	22893	7.97424	60480
2	22903	7.97968	60516
2	22913	7.98512	60552
2	22923	7.99056	60588
2	22933	7.996	60624
2	22961	8.00144	60660
2	22971	8.00688	60696
2	22981	8.01232	60732
2	22991	8.01776	60768
2	23001	8.0232	60804
2	23011	8.02864	60840
2	23021	8.03408	60876
2	23031	8.03952	60912
2	23041	8.04496	60948
2	23060	8.0504	60984
2	23070	8.05584	61020
2	23080	8.06128	61056
2	23090	8.06672	61092
2	23100	8.07216	61128
2	23110	8.0776	61164
2	23120	8.08304	61200
2	23130	8.08848	61236
2	23140	8.09392	61272
2	23150	8.09936	61308
2	23178	8.1048	61344
2	23188	8.11024	61380
2	23198	8.11568	61416
2	23208	8.12112	61452
2	23218	8.12656	61488
2	23228	8.132	61524
2	23238	8.13744	61560
2	23248	8.14288	61596
2	23258	8.14832	61632
2	23277	8.15376	61668
2	23287	8.1592	61704
2	23297	8.16464	61740
2	23307	8.17008	61776
2	23317	8.17552	61812
2	23327	8.18096	61848
2	23337	8.1864	61884
2	23347	8.19184	61920
2	23357	8.19728	61956
2	23385	8.20272	61992
2	23395	8.20816	62028
2	23405	8.2136	62064
2	23415	8.21904	62100
2	23425	8.22448	62136
2	23435	8.22992	62172
2	23445	8.23536	62208
2	23455	8.2408	62244
2	23465	8.24624	62280
2	23484	8.25168	62316
2	23494	8.25712	62352
2	23504	8.26256	62388
2	23514	8.268	62424
2	23524	8.27344	62460
2	23534	8.27888	62496
2	23544	8.28432	62532
2	23554	8.28976	62568
2	23564	8.2952	62604
2	23592	8.30064	62640
2	23602	8.30608	62676
2	23612	8.31152	62712
2	23622	8.31696	62748
2	23632	8.3224	62784
2	23642	8.32784	62820
2	24581	8.60304	62856
2	24587	8.60752	62892
2	24593	8.60848	62928
2	24599	8.61296	62964
2	24605	8.61392	63000
2	24611	8.6184	63036
2	24617	8.61936	63072
2	24623	8.62384	63108
2	24629	8.6248	63144
2	24635	8.62928	63180
2	24641	8.63024	63216
2	24647	8.63472	63252
2	24653	8.63568	63288
2	24659	8.64016	63324
2	24665	8.64112	63360
2	24671	8.6456	63396
2	24677	8.64656	63432
2	24694	8.65104	63468
2	24700	8.652	63504
2	24713	8.65648	63540
2	24719	8.65744	63576
2	24725	8.66192	63612
2	24731	8.66288	63648
2	24737	8.66736	63684
2	24743	8.66832	63720
2	24749	8.6728	63756
2	24755	8.67376	63792
2	24761	8.67824	63828
2	24767	8.6792	63864
2	24773	8.68368	63900
2	24779	8.68464	63936
2	24785	8.68912	63972
2	24791	8.69008	64008
2	24797	8.69456	64044
2	24803	8.69552	64080
2	24827	8.7	64116
2	24833	8.70096	64152
2	24839	8.70544	64188
2	24845	8.7064	64224
2	24851	8.71088	64260
2	24857	8.71184	64296
2	24863	8.71632	64332
2	24869	8.71728	64368
2	24875	8.72176	64404
2	24881	8.72272	64440
2	24887	8.7272	64476
2	24893	8.72816	64512
2	24899	8.73264	64548
2	24905	8.7336	64584
2	24911	8.73808	64620
2	24917	8.73904	64656
2	24923	8.74352	64692
2	24929	8.74448	64728
2	24935	8.74896	64764
2	24941	8.74992	64800
2	24958	8.7544	64836
2	24964	8.75536	64872
2	24970	8.75984	64908
2	24976	8.7608	64944
2	24982	8.76528	64980
2	24988	8.76624	65016
2	24994	8.77072	65052
2	25000	8.77168	65088
2	25006	8.77616	65124
2	25012	8.77712	65160
2	25018	8.7816	65196
2	25024	8.78256	65232
2	25030	8.78704	65268
2	25036	8.788	65304
2	25042	8.79248	65340
2	25048	8.79344	65376
2	25054	8.79792	65412
2	25060	8.79888	65448
2	25086	8.80336	65484
2	25092	8.80432	65520
2	25098	8.8088	65556
2	25104	8.80976	65592
2	25110	8.81424	65628
2	25116	8.8152	65664
2	25122	8.81968	65700
2	25128	8.82064	65736
2	25134	8.82512	65772
2	25140	8.82608	65808
2	25146	8.83056	65844
2	25152	8.83152	65880
2	25158	8.836	65916
2	25164	8.83696	65952
2	25170	8.84144	65988
2	25176	8.8424	66024
2	25182	8.84688	66060
2	25188	8.84784	66096
2	25203	8.85232	66132
2	25209	8.85328	66168
2	25215	8.85776	66204
2	25221	8.85872	66240
2	25227	8.8632	66276
2	25233	8.86416	66312
2	25239	8.86864	66348
2	25245	8.8696	66384
2	25251	8.87408	66420
2	25257	8.87504	66456
2	25263	8.87952	66492
2	25269	8.88048	66528
2	25275	8.88496	66564
2	25281	8.88592	66600
2	25287	8.8904	66636
2	25293	8.89136	66672
2	25299	8.89584	66708
2	25305	8.8968	66744
2	25329	8.90128	66780
2	25335	8.90224	66816
2	25341	8.90672	66852
2	25347	8.90768	66888
2	25353	8.91216	66924
2	25359	8.91312	66960
2	25365	8.9176	66996
2	25371	8.91856	67032
2	25377	8.92304	67068
2	25383	8.924	67104
2	25389	8.92848	67140
2	25395	8.92944	67176
2	25401	8.93392	67212
2	25407	8.93488	67248
2	25413	8.93936	67284
2	25419	8.94032	67320
2	25425	8.9448	67356
2	25431	8.94576	67392
2	25446	8.95024	67428
2	25452	8.9512	67464
2	25458	8.95568	67500
2	25464	8.95664	67536
2	25470	8.96112	67572
2	25476	8.96208	67608
2	25482	8.96656	67644
2	25488	8.96752	67680
2	25494	8.972	67716
2	25500	8.97296	67752
2	25506	8.97744	67788
2	25512	8.9784	67824
2	25518	8.98288	67860
2	25524	8.98384	67896
2	25530	8.98832	67932
2	25536	8.98928	67968
2	25542	8.99376	68004
2	25548	8.99472	68040
2	25554	8.9992	68076
2	25578	9.00016	68112
2	25584	9.00464	68148
2	25590	9.0056	68184
2	25596	9.01008	68220
2	25602	9.01104	68256
2	25608	9.01552	68292
2	25614	9.01648	68328
2	25620	9.02096	68364
2	25626	9.02192	68400
2	25632	9.0264	68436
2	25638	9.02736	68472
2	25644	9.03184	68508
2	25650	9.0328	68544
2	25656	9.03728	68580
2	25662	9.03824	68616
2	25668	9.04272	68652
2	25674	9.04368	68688
2	25680	9.04816	68724
2	25686	9.04912	68760
2	25701	9.0536	68796
2	25707	9.05456	68832
2	25713	9.05904	68868
2	25719	9.06	68904
2	25725	9.06448	68940
2	25731	9.06544	68976
2	25737	9.06992	69012
2	25743	9.07088	69048
2	25749	9.07536	69084
2	25755	9.07632	69120
2	25761	9.0808	69156
2	25767	9.08176	69192
2	25773	9.08624	69228
2	25779	9.0872	69264
2	25785	9.09168	69300
2	25791	9.09264	69336
2	25797	9.09712	69372
2	25803	9.09808	69408
2	25827	9.10256	69444
2	25833	9.10352	69480
2	25839	9.108	69516
2	25845	9.10896	69552
2	25851	9.11344	69588
2	25857	9.1144	69624
2	25863	9.11888	69660
2	25869	9.11984	69696
2	25875	9.12432	69732
2	25881	9.12528	69768
2	25887	9.12976	69804
2	25893	9.13072	69840
2	25899	9.1352	69876
2	25905	9.13616	69912
2	25911	9.14064	69948
2	25917	9.1416	69984
2	25923	9.14608	70020
2	26429	9.17856	70056
2	26447	9.184	70092
2	26465	9.18944	70128
2	26486	9.19488	70164
2	26523	9.20032	70200
2	26541	9.20576	70236
2	26559	9.2112	70272
2	26577	9.21664	70308
2	26594	9.22208	70344
2	26615	9.22752	70380
2	26634	9.23296	70416
2	26652	9.2384	70452
2	26670	9.24384	70488
2	26688	9.24928	70524
2	26715	9.25472	70560
2	26733	9.26016	70596
2	26751	9.2656	70632
2	26772	9.27104	70668
2	26791	9.27648	70704
2	26809	9.28192	70740
2	26827	9.28736	70776
2	26845	9.2928	70812
2	26863	9.29824	70848
2	26901	9.30368	70884
2	26919	9.30912	70920
2	26940	9.31456	70956
2	26959	9.32	70992
2	26977	9.32544	71028
2	26995	9.33088	71064
2	27013	9.33632	71100
2	27031	9.34176	71136
2	27049	9.3472	71172
2	27078	9.35264	71208
2	27099	9.35808	71244
2	27118	9.36352	71280
2	27136	9.36896	71316
2	27154	9.3744	71352
2	27172	9.37984	71388
2	27190	9.38528	71424
2	27208	9.39072	71460
2	27226	9.39616	71496
2	27265	9.4016	71532
2	27284	9.40704	71568
2	27294	9.41216	71604
2	27300	9.41248	71640
2	27310	9.4176	71676
2	27316	9.41792	71712
2	27326	9.42304	71748
2	27332	9.42336	71784
2	27342	9.42848	71820
2	27348	9.4288	71856
2	27358	9.43392	71892
2	27364	9.43424	71928
2	27374	9.43936	71964
2	27380	9.43968	72000
2	27390	9.4448	72036
2	27396	9.44512	72072
2	27415	9.45024	72108
2	27421	9.45056	72144
2	27431	9.45568	72180
2	27437	9.456	72216
2	27447	9.46112	72252
2	27453	9.46144	72288
2	27463	9.46656	72324
2	27469	9.46688	72360
2	27479	9.472	72396
2	27485	9.47232	72432
2	27495	9.47744	72468
2	27501	9.47776	72504
2	27511	9.48288	72540
2	27517	9.4832	72576
2	27527	9.48832	72612
2	27533	9.48864	72648
2	27543	9.49376	72684
2	27549	9.49408	72720
2	27559	9.4992	72756
2	27565	9.49952	72792
2	27593	9.50464	72828
2	27599	9.50496	72864
2	27609	9.51008	72900
2	27615	9.5104	72936
2	27625	9.51552	72972
2	27631	9.51584	73008
2	27641	9.52096	73044
2	27647	9.52128	73080
2	27657	9.5264	73116
2	27663	9.52672	73152
2	27673	9.53184	73188
2	27679	9.53216	73224
2	27689	9.53728	73260
2	27695	9.5376	73296
2	27705	9.54272	73332
2	27711	9.54304	73368
2	27721	9.54816	73404
2	27727	9.54848	73440
2	27746	9.5536	73476
2	27752	9.55392	73512
2	27762	9.55904	73548
2	27768	9.55936	73584
2	27778	9.56448	73620
2	27784	9.5648	73656
2	27794	9.56992	73692
2	27800	9.57024	73728
2	27810	9.57536	73764
2	27816	9.57568	73800
2	27826	9.5808	73836
2	27832	9.58112	73872
2	27842	9.58624	73908
2	27848	9.58656	73944
2	27858	9.59168	73980
2	27864	9.592	74016
2	27874	9.59712	74052
2	27880	9.59744	74088
2	27908	9.60256	74124
2	27914	9.60288	74160
2	27924	9.608	74196
2	27930	9.60832	74232
2	27940	9.61344	74268
2	27946	9.61376	74304
2	27956	9.61888	74340
2	27962	9.6192	74376
2	27972	9.62432	74412
2	27978	9.62464	74448
2	27988	9.62976	74484
2	27994	9.63008	74520
2	28004	9.6352	74556
2	28010	9.63552	74592
2	28020	9.64064	74628
2	28026	9.64096	74664
2	28036	9.64608	74700
2	28042	9.6464	74736
2	28061	9.65152	74772
2	28067	9.65184	74808
2	28077	9.65696	74844
2	28083	9.65728	74880
2	28093	9.6624	74916
2	28099	9.66272	74952
2	28109	9.66784	74988
2	28115	9.66816	75024
2	28125	9.67328	75060
2	28131	9.6736	75096
2	28141	9.67872	75132
2	28147	9.67904	75168
2	28157	9.68416	75204
2	28163	9.68448	75240
2	28173	9.6896	75276
2	28179	9.68992	75312
2	28189	9.69504	75348
2	28195	9.69536	75384
2	28223	9.70048	75420
2	28229	9.7008	75456
2	28239	9.70592	75492
2	28245	9.70624	75528
2	28255	9.71136	75564
2	28261	9.71168	75600
2	28271	9.7168	75636
2	28277	9.71712	75672
2	28294	9.72224	75708
2	28309	9.72768	75744
2	28323	9.73312	75780
2	28337	9.73856	75816
2	28351	9.744	75852
2	28365	9.74944	75888
2	28388	9.75488	75924
2	28402	9.76032	75960
2	28419	9.76576	75996
2	28434	9.7712	76032
2	28448	9.77664	76068
2	28462	9.78208	76104
2	28472	9.78752	76140
2	28486	9.79296	76176
2	28500	9.7984	76212
2	28536	9.80384	76248
2	28550	9.80928	76284
2	28564	9.81472	76320
2	28578	9.82016	76356
2	28592	9.8256	76392
2	28606	9.83104	76428
2	28620	9.83648	76464
2	28634	9.84192	76500
2	28652	9.84736	76536
2	28675	9.8528	76572
2	28689	9.85824	76608
2	28702	9.86368	76644
2	28920	9.86912	76680
2	28934	9.87456	76716
2	28952	9.88	76752
2	28966	9.88544	76788
2	28980	9.89088	76824
2	28994	9.89632	76860
2	29026	9.90176	76896
2	29040	9.9072	76932
2	29054	9.91264	76968
2	29068	9.91808	77004
2	29086	9.92352	77040
2	29100	9.92896	77076
2	29114	9.9344	77112
2	29128	9.93984	77148
2	29142	9.94528	77184
2	29165	9.95072	77220
2	29406	9.96976	77256
2	29416	9.9752	77292
2	29426	9.98064	77328
2	29436	9.98608	77364
2	29446	9.99152	77400
2	29456	9.99696	77436
3	762	1.11904	36
3	772	1.12448	72
3	782	1.12992	108
3	792	1.13536	144
3	802	1.1408	180
3	812	1.14624	216
3	831	1.15168	252
3	841	1.15712	288
3	851	1.16256	324
3	861	1.168	360
3	871	1.17344	396
3	881	1.17888	432
3	891	1.18432	468
3	901	1.18976	504
3	911	1.1952	540
3	939	1.20064	576
3	949	1.20608	612
3	959	1.21152	648
3	969	1.21696	684
3	979	1.2224	720
3	989	1.22784	756
3	999	1.23328	792
3	1009	1.23872	828
3	1019	1.24416	864
3	1029	1.2496	900
3	1048	1.25504	936
3	1058	1.26048	972
3	1068	1.26592	1008
3	1078	1.27136	1044
3	1088	1.2768	1080
3	1098	1.28224	1116
3	1108	1.28768	1152
3	1118	1.29312	1188
3	1128	1.29856	1224
3	1156	1.304	1260
3	1166	1.30944	1296
3	1176	1.31488	1332
3	1186	1.32032	1368
3	1196	1.32576	1404
3	1206	1.3312	1440
3	1216	1.33664	1476
3	1226	1.34208	1512
3	1236	1.34752	1548
3	1263	1.35296	1584
3	1283	1.3584	1620
3	1394	1.36384	1656
3	1408	1.36928	1692
3	1414	1.37424	1728
3	1420	1.37472	1764
3	1430	1.37968	1800
3	1436	1.38016	1836
3	1446	1.38512	1872
3	1452	1.3856	1908
3	1462	1.39056	1944
3	1468	1.39104	1980
3	1478	1.396	2016
3	1484	1.39648	2052
3	1512	1.40144	2088
3	1518	1.40192	2124
3	1528	1.40688	2160
3	1534	1.40736	2196
3	1544	1.41232	2232
3	1550	1.4128	2268
3	1560	1.41776	2304
3	1566	1.41824	2340
3	1576	1.4232	2376
3	1582	1.42368	2412
3	1592	1.42864	2448
3	1598	1.42912	2484
3	1608	1.43408	2520
3	1614	1.43456	2556
3	1624	1.43952	2592
3	1630	1.44	2628
3	1640	1.44496	2664
3	1646	1.44544	2700
3	1665	1.4504	2736
3	1671	1.45088	2772
3	1681	1.45584	2808
3	1687	1.45632	2844
3	1697	1.46128	2880
3	1703	1.46176	2916
3	1713	1.46672	2952
3	1719	1.4672	2988
3	1729	1.47216	3024
3	1735	1.47264	3060
3	1745	1.4776	3096
3	1751	1.47808	3132
3	1761	1.48304	3168
3	1767	1.48352	3204
3	1777	1.48848	3240
3	1783	1.48896	3276
3	1793	1.49392	3312
3	1799	1.4944	3348
3	1809	1.49936	3384
3	1815	1.49984	3420
3	1843	1.5048	3456
3	1849	1.50528	3492
3	1859	1.51024	3528
3	1865	1.51072	3564
3	1875	1.51568	3600
3	1881	1.51616	3636
3	1891	1.52112	3672
3	1897	1.5216	3708
3	1907	1.52656	3744
3	1913	1.52704	3780
3	1923	1.532	3816
3	1929	1.53248	3852
3	1939	1.53744	3888
3	1945	1.53792	3924
3	1955	1.54288	3960
3	1961	1.54336	3996
3	1971	1.54832	4032
3	1977	1.5488	4068
3	2002	1.55376	4104
3	2008	1.55424	4140
3	2025	1.5592	4176
3	2031	1.55968	4212
3	2041	1.56464	4248
3	2047	1.56512	4284
3	2057	1.57008	4320
3	2063	1.57056	4356
3	2073	1.57552	4392
3	2079	1.576	4428
3	2089	1.58096	4464
3	2095	1.58144	4500
3	2105	1.5864	4536
3	2111	1.58688	4572
3	2121	1.59184	4608
3	2127	1.59232	4644
3	2137	1.59728	4680
3	2143	1.59776	4716
3	2171	1.60272	4752
3	2177	1.6032	4788
3	2187	1.60816	4824
3	2193	1.60864	4860
3	2203	1.6136	4896
3	2209	1.61408	4932
3	2227	1.61952	4968
3	2241	1.62496	5004
3	2255	1.6304	5040
3	2269	1.63584	5076
3	2283	1.64128	5112
3	2297	1.64672	5148
3	2324	1.65216	5184
3	2338	1.6576	5220
3	3163	1.7736	5256
3	3164	1.7736	5292
3	3175	1.77904	5328
3	3176	1.77904	5364
3	3187	1.78448	5400
3	3188	1.78448	5436
3	3199	1.78992	5472
3	3200	1.78992	5508
3	3211	1.79536	5544
3	3212	1.79536	5580
3	3245	1.8008	5616
3	3246	1.8008	5652
3	3257	1.80624	5688
3	3258	1.80624	5724
3	3269	1.81168	5760
3	3270	1.81168	5796
3	3281	1.81712	5832
3	3282	1.81712	5868
3	3293	1.82256	5904
3	3294	1.82256	5940
3	3305	1.828	5976
3	3306	1.828	6012
3	3317	1.83344	6048
3	3318	1.83344	6084
3	3329	1.83888	6120
3	3330	1.83888	6156
3	3341	1.84432	6192
3	3342	1.84432	6228
3	3353	1.84976	6264
3	3354	1.84976	6300
3	3383	1.8552	6336
3	3384	1.8552	6372
3	3395	1.86064	6408
3	3396	1.86064	6444
3	3407	1.86608	6480
3	3408	1.86608	6516
3	3419	1.87152	6552
3	3420	1.87152	6588
3	3431	1.87696	6624
3	3432	1.87696	6660
3	3443	1.8824	6696
3	3444	1.8824	6732
3	3455	1.88784	6768
3	3456	1.88784	6804
3	3467	1.89328	6840
3	3468	1.89328	6876
3	3479	1.89872	6912
3	3480	1.89872	6948
3	3509	1.90416	6984
3	3510	1.90416	7020
3	3521	1.9096	7056
3	3522	1.9096	7092
3	3533	1.91504	7128
3	3534	1.91504	7164
3	3545	1.92048	7200
3	3546	1.92048	7236
3	3557	1.92592	7272
3	3558	1.92592	7308
3	3569	1.93136	7344
3	3570	1.93136	7380
3	3581	1.9368	7416
3	3582	1.9368	7452
3	3593	1.94224	7488
3	3594	1.94224	7524
3	3605	1.94768	7560
3	3606	1.94768	7596
3	3626	1.95312	7632
3	3627	1.95312	7668
3	3638	1.95856	7704
3	3639	1.95856	7740
3	3650	1.964	7776
3	3651	1.964	7812
3	3662	1.96944	7848
3	3663	1.96944	7884
3	3674	1.97488	7920
3	3675	1.97488	7956
3	3686	1.98032	7992
3	3687	1.98032	8028
3	3698	1.98576	8064
3	3699	1.98576	8100
3	3710	1.9912	8136
3	3711	1.9912	8172
3	3722	1.99664	8208
3	3723	1.99664	8244
3	3752	2.00208	8280
3	3753	2.00208	8316
3	3764	2.00752	8352
3	3765	2.00752	8388
3	3776	2.01296	8424
3	3777	2.01296	8460
3	3788	2.0184	8496
3	3789	2.0184	8532
3	3800	2.02384	8568
3	3801	2.02384	8604
3	3812	2.02928	8640
3	3813	2.02928	8676
3	3824	2.03472	8712
3	3825	2.03472	8748
3	3836	2.04016	8784
3	3837	2.04016	8820
3	3848	2.0456	8856
3	3849	2.0456	8892
3	3871	2.05104	8928
3	3872	2.05104	8964
3	3883	2.05648	9000
3	3884	2.05648	9036
3	3895	2.06192	9072
3	3896	2.06192	9108
3	3907	2.06736	9144
3	3908	2.06736	9180
3	3919	2.0728	9216
3	3920	2.0728	9252
3	3931	2.07824	9288
3	3932	2.07824	9324
3	3943	2.08368	9360
3	3944	2.08368	9396
3	3955	2.08912	9432
3	3956	2.08912	9468
3	3967	2.09456	9504
3	3968	2.09456	9540
3	3997	2.1	9576
3	3998	2.1	9612
3	4009	2.10544	9648
3	4010	2.10544	9684
3	4021	2.11088	9720
3	4022	2.11088	9756
3	4033	2.11632	9792
3	4034	2.11632	9828
3	4045	2.12176	9864
3	4046	2.12176	9900
3	4057	2.1272	9936
3	4058	2.1272	9972
3	4069	2.13264	10008
3	4070	2.13264	10044
3	4081	2.13808	10080
3	4082	2.13808	10116
3	4093	2.14352	10152
3	4094	2.14352	10188
3	4105	2.14896	10224
3	4106	2.14896	10260
3	4126	2.1544	10296
3	4127	2.1544	10332
3	4138	2.15984	10368
3	4139	2.15984	10404
3	4150	2.16528	10440
3	4151	2.16528	10476
3	4162	2.17072	10512
3	4163	2.17072	10548
3	4174	2.17616	10584
3	4175	2.17616	10620
3	4186	2.1816	10656
3	4187	2.1816	10692
3	4198	2.18704	10728
3	4199	2.18704	10764
3	4210	2.19248	10800
3	4211	2.19248	10836
3	4222	2.19792	10872
3	4223	2.19792	10908
3	4252	2.20336	10944
3	4253	2.20336	10980
3	4264	2.2088	11016
3	4265	2.2088	11052
3	4276	2.21424	11088
3	4277	2.21424	11124
3	4288	2.21968	11160
3	4289	2.21968	11196
3	4300	2.22512	11232
3	4301	2.22512	11268
3	4312	2.23056	11304
3	4313	2.23056	11340
3	4324	2.236	11376
3	4325	2.236	11412
3	4336	2.24144	11448
3	4337	2.24144	11484
3	4348	2.24688	11520
3	4349	2.24688	11556
3	4369	2.25232	11592
3	4370	2.25232	11628
3	4381	2.25776	11664
3	4382	2.25776	11700
3	4393	2.2632	11736
3	4394	2.2632	11772
3	4405	2.26864	11808
3	4406	2.26864	11844
3	4417	2.27408	11880
3	4418	2.27408	11916
3	4429	2.27952	11952
3	4430	2.27952	11988
3	4441	2.28496	12024
3	4442	2.28496	12060
3	4453	2.2904	12096
3	4454	2.2904	12132
3	4465	2.29584	12168
3	4466	2.29584	12204
3	4495	2.30128	12240
3	4496	2.30128	12276
3	4507	2.30672	12312
3	4508	2.30672	12348
3	4519	2.31216	12384
3	4520	2.31216	12420
3	4744	2.32224	12456
3	4766	2.32768	12492
3	4784	2.33312	12528
3	4802	2.33856	12564
3	4820	2.344	12600
3	4838	2.34944	12636
3	4865	2.35488	12672
3	4883	2.36032	12708
3	4901	2.36576	12744
3	4923	2.3712	12780
3	4941	2.37664	12816
3	4959	2.38208	12852
3	4977	2.38752	12888
3	4995	2.39296	12924
3	5013	2.3984	12960
3	5049	2.40384	12996
3	5067	2.40928	13032
3	5089	2.41472	13068
3	5107	2.42016	13104
3	5125	2.4256	13140
3	5143	2.43104	13176
3	5161	2.43648	13212
3	5179	2.44192	13248
3	5197	2.44736	13284
3	5224	2.4528	13320
3	5246	2.45824	13356
3	5264	2.46368	13392
3	5282	2.46912	13428
3	5300	2.47456	13464
3	5318	2.48	13500
3	5336	2.48544	13536
3	5354	2.49088	13572
3	5372	2.49632	13608
3	5412	2.50176	13644
3	5430	2.5072	13680
3	5448	2.51264	13716
3	5466	2.51808	13752
3	5484	2.52352	13788
3	5502	2.52896	13824
3	5520	2.5344	13860
3	5538	2.53984	13896
3	5560	2.54528	13932
3	5587	2.55072	13968
3	5605	2.55616	14004
3	5623	2.5616	14040
3	5641	2.56704	14076
3	5655	2.57248	14112
3	5661	2.5736	14148
3	5671	2.57792	14184
3	5677	2.57904	14220
3	5687	2.58336	14256
3	5693	2.58448	14292
3	5703	2.5888	14328
3	5709	2.58992	14364
3	5719	2.59424	14400
3	5725	2.59536	14436
3	5735	2.59968	14472
3	5759	2.6008	14508
3	5769	2.60512	14544
3	5775	2.60624	14580
3	5785	2.61056	14616
3	5791	2.61168	14652
3	5801	2.616	14688
3	5807	2.61712	14724
3	5817	2.62144	14760
3	5823	2.62256	14796
3	5833	2.62688	14832
3	5839	2.628	14868
3	5849	2.63232	14904
3	5855	2.63344	14940
3	5865	2.63776	14976
3	5871	2.63888	15012
3	5881	2.6432	15048
3	5887	2.64432	15084
3	5897	2.64864	15120
3	5903	2.64976	15156
3	5922	2.65408	15192
3	5928	2.6552	15228
3	5938	2.65952	15264
3	5944	2.66064	15300
3	5954	2.66496	15336
3	5960	2.66608	15372
3	5970	2.6704	15408
3	5976	2.67152	15444
3	5986	2.67584	15480
3	5992	2.67696	15516
3	6002	2.68128	15552
3	6008	2.6824	15588
3	6018	2.68672	15624
3	6024	2.68784	15660
3	6034	2.69216	15696
3	6040	2.69328	15732
3	6050	2.6976	15768
3	6056	2.69872	15804
3	6084	2.70304	15840
3	6090	2.70416	15876
3	6100	2.70848	15912
3	6106	2.7096	15948
3	6116	2.71392	15984
3	6122	2.71504	16020
3	6132	2.71936	16056
3	6138	2.72048	16092
3	6148	2.7248	16128
3	6154	2.72592	16164
3	6164	2.73024	16200
3	6170	2.73136	16236
3	6180	2.73568	16272
3	6186	2.7368	16308
3	6196	2.74112	16344
3	6202	2.74224	16380
3	6212	2.74656	16416
3	6218	2.74768	16452
3	6237	2.752	16488
3	6243	2.75312	16524
3	6253	2.75744	16560
3	6259	2.75856	16596
3	6269	2.76288	16632
3	6275	2.764	16668
3	6285	2.76832	16704
3	6291	2.76944	16740
3	6301	2.77376	16776
3	6307	2.77488	16812
3	6317	2.7792	16848
3	6323	2.78032	16884
3	6333	2.78464	16920
3	6339	2.78576	16956
3	6349	2.79008	16992
3	6355	2.7912	17028
3	6365	2.79552	17064
3	6371	2.79664	17100
3	6399	2.80096	17136
3	6405	2.80208	17172
3	6415	2.8064	17208
3	6421	2.80752	17244
3	6431	2.81184	17280
3	6437	2.81296	17316
3	6447	2.81728	17352
3	6453	2.8184	17388
3	6463	2.82272	17424
3	6469	2.82384	17460
3	6479	2.82816	17496
3	6485	2.82928	17532
3	6495	2.8336	17568
3	6501	2.83472	17604
3	6511	2.83904	17640
3	6517	2.84016	17676
3	6527	2.84448	17712
3	6533	2.8456	17748
3	6543	2.84992	17784
3	6560	2.85104	17820
3	6570	2.85536	17856
3	6576	2.85648	17892
3	6586	2.8608	17928
3	6592	2.86192	17964
3	6610	2.86736	18000
3	6624	2.8728	18036
3	6641	2.87824	18072
3	6654	2.88368	18108
3	6872	2.88912	18144
3	6886	2.89456	18180
3	6918	2.9	18216
3	6932	2.90544	18252
3	6946	2.91088	18288
3	6960	2.91632	18324
3	6974	2.92176	18360
3	6988	2.9272	18396
3	7002	2.93264	18432
3	7016	2.93808	18468
3	7033	2.94352	18504
3	7048	2.94896	18540
3	7071	2.9544	18576
3	7085	2.95984	18612
3	7099	2.96528	18648
3	7113	2.97072	18684
3	7127	2.97616	18720
3	7141	2.9816	18756
3	7158	2.98704	18792
3	7173	2.99248	18828
3	7187	2.99792	18864
3	7221	3.00336	18900
3	7238	3.0088	18936
3	7459	3.01424	18972
3	7476	3.01968	19008
3	7491	3.02512	19044
3	7505	3.03056	19080
3	7519	3.036	19116
3	7533	3.04144	19152
3	7547	3.04688	19188
3	7570	3.05232	19224
3	7584	3.05776	19260
3	7601	3.0632	19296
3	7616	3.06864	19332
3	7630	3.07408	19368
3	7644	3.07952	19404
3	7658	3.08496	19440
3	7672	3.0904	19476
3	7686	3.09584	19512
3	7722	3.10128	19548
3	7739	3.10672	19584
3	7754	3.11216	19620
3	8293	3.2888	19656
3	8303	3.29424	19692
3	8313	3.29968	19728
3	8341	3.30512	19764
3	8351	3.31056	19800
3	8361	3.316	19836
3	8371	3.32144	19872
3	8381	3.32688	19908
3	8391	3.33232	19944
3	8401	3.33776	19980
3	8411	3.3432	20016
3	8421	3.34864	20052
3	8442	3.35408	20088
3	8452	3.35952	20124
3	8462	3.36496	20160
3	8472	3.3704	20196
3	8482	3.37584	20232
3	8492	3.38128	20268
3	8502	3.38672	20304
3	8512	3.39216	20340
3	8522	3.3976	20376
3	8552	3.40304	20412
3	8562	3.40848	20448
3	8572	3.41392	20484
3	8582	3.41936	20520
3	8592	3.4248	20556
3	8602	3.43024	20592
3	8612	3.43568	20628
3	8622	3.44112	20664
3	8632	3.44656	20700
3	8651	3.452	20736
3	8661	3.45744	20772
3	8671	3.46288	20808
3	8681	3.46832	20844
3	8691	3.47376	20880
3	8701	3.4792	20916
3	8711	3.48464	20952
3	8721	3.49008	20988
3	8731	3.49552	21024
3	8759	3.50096	21060
3	8769	3.5064	21096
3	8779	3.51184	21132
3	8789	3.51728	21168
3	8799	3.52272	21204
3	8809	3.52816	21240
3	8819	3.5336	21276
3	8829	3.53904	21312
3	8839	3.54448	21348
3	8849	3.54992	21384
3	8868	3.55536	21420
3	8878	3.5608	21456
3	8888	3.56624	21492
3	8898	3.57168	21528
3	8908	3.57712	21564
3	8918	3.58256	21600
3	8928	3.588	21636
3	8938	3.59344	21672
3	8948	3.59888	21708
3	8976	3.60432	21744
3	8986	3.60976	21780
3	8996	3.6152	21816
3	9006	3.62064	21852
3	9016	3.62608	21888
3	9026	3.63152	21924
3	9036	3.63696	21960
3	9046	3.6424	21996
3	9056	3.64784	22032
3	9075	3.65328	22068
3	9085	3.65872	22104
3	9095	3.66416	22140
3	9105	3.6696	22176
3	9115	3.67504	22212
3	9125	3.68048	22248
3	9135	3.68592	22284
3	9145	3.69136	22320
3	9155	3.6968	22356
3	9183	3.70224	22392
3	9193	3.70768	22428
3	9203	3.71312	22464
3	9213	3.71856	22500
3	9223	3.724	22536
3	9233	3.72944	22572
3	9243	3.73488	22608
3	9253	3.74032	22644
3	9263	3.74576	22680
3	9282	3.7512	22716
3	9292	3.75664	22752
3	9302	3.76208	22788
3	9312	3.76752	22824
3	9322	3.77296	22860
3	9332	3.7784	22896
3	9342	3.78384	22932
3	9352	3.78928	22968
3	9362	3.79472	23004
3	9390	3.80016	23040
3	9400	3.8056	23076
3	9410	3.81104	23112
3	9420	3.81648	23148
3	9430	3.82192	23184
3	9440	3.82736	23220
3	9555	3.89632	23256
3	9583	3.90176	23292
3	9593	3.9072	23328
3	9603	3.91264	23364
3	9613	3.91808	23400
3	9623	3.92352	23436
3	9633	3.92896	23472
3	9643	3.9344	23508
3	9653	3.93984	23544
3	9663	3.94528	23580
3	9682	3.95072	23616
3	9692	3.95616	23652
3	9702	3.9616	23688
3	9712	3.96704	23724
3	9722	3.97248	23760
3	9732	3.97792	23796
3	9742	3.98336	23832
3	9752	3.9888	23868
3	9762	3.99424	23904
3	9772	3.99968	23940
3	9800	4.00512	23976
3	9810	4.01056	24012
3	9820	4.016	24048
3	9830	4.02144	24084
3	9840	4.02688	24120
3	9850	4.03232	24156
3	9860	4.03776	24192
3	9870	4.0432	24228
3	9880	4.04864	24264
3	9899	4.05408	24300
3	9909	4.05952	24336
3	9919	4.06496	24372
3	9929	4.0704	24408
3	9939	4.07584	24444
3	9949	4.08128	24480
3	9959	4.08672	24516
3	9969	4.09216	24552
3	9979	4.0976	24588
3	10007	4.10304	24624
3	10017	4.10848	24660
3	10027	4.11392	24696
3	10037	4.11936	24732
3	10047	4.1248	24768
3	10057	4.13024	24804
3	10067	4.13568	24840
3	10077	4.14112	24876
3	10087	4.14656	24912
3	10106	4.152	24948
3	10116	4.15744	24984
3	10126	4.16288	25020
3	10136	4.16832	25056
3	10146	4.17376	25092
3	10156	4.1792	25128
3	10166	4.18464	25164
3	10176	4.19008	25200
3	10186	4.19552	25236
3	10214	4.20096	25272
3	10224	4.2064	25308
3	10234	4.21184	25344
3	10244	4.21728	25380
3	10254	4.22272	25416
3	10264	4.22816	25452
3	10274	4.2336	25488
3	10284	4.23904	25524
3	10294	4.24448	25560
3	10304	4.24992	25596
3	10323	4.25536	25632
3	10333	4.2608	25668
3	10343	4.26624	25704
3	10353	4.27168	25740
3	10363	4.27712	25776
3	10373	4.28256	25812
3	10383	4.288	25848
3	10393	4.29344	25884
3	10403	4.29888	25920
3	10431	4.30432	25956
3	10441	4.30976	25992
3	10451	4.3152	26028
3	10461	4.32064	26064
3	10471	4.32608	26100
3	10481	4.33152	26136
3	10491	4.33696	26172
3	10501	4.3424	26208
3	10511	4.34784	26244
3	10530	4.35328	26280
3	10540	4.35872	26316
3	10550	4.36416	26352
3	10560	4.3696	26388
3	10570	4.37504	26424
3	10580	4.38048	26460
3	10590	4.38592	26496
3	10600	4.39136	26532
3	10610	4.3968	26568
3	10640	4.40224	26604
3	10657	4.40768	26640
3	10667	4.41312	26676
3	10677	4.41856	26712
3	10687	4.424	26748
3	10697	4.42944	26784
3	10707	4.43488	26820
3	11220	4.49808	26856
3	11221	4.49808	26892
3	11250	4.50352	26928
3	11251	4.50352	26964
3	11262	4.50896	27000
3	11263	4.50896	27036
3	11274	4.5144	27072
3	11275	4.5144	27108
3	11286	4.51984	27144
3	11287	4.51984	27180
3	11298	4.52528	27216
3	11299	4.52528	27252
3	11310	4.53072	27288
3	11311	4.53072	27324
3	11322	4.53616	27360
3	11323	4.53616	27396
3	11334	4.5416	27432
3	11335	4.5416	27468
3	11346	4.54704	27504
3	11347	4.54704	27540
3	11371	4.55248	27576
3	11372	4.55248	27612
3	11390	4.55792	27648
3	11391	4.55792	27684
3	11402	4.56336	27720
3	11403	4.56336	27756
3	11414	4.5688	27792
3	11415	4.5688	27828
3	11426	4.57424	27864
3	11427	4.57424	27900
3	11438	4.57968	27936
3	11439	4.57968	27972
3	11450	4.58512	28008
3	11451	4.58512	28044
3	11462	4.59056	28080
3	11463	4.59056	28116
3	11474	4.596	28152
3	11475	4.596	28188
3	11504	4.60144	28224
3	11505	4.60144	28260
3	11516	4.60688	28296
3	11517	4.60688	28332
3	11528	4.61232	28368
3	11529	4.61232	28404
3	11540	4.61776	28440
3	11541	4.61776	28476
3	11552	4.6232	28512
3	11553	4.6232	28548
3	11564	4.62864	28584
3	11565	4.62864	28620
3	11576	4.63408	28656
3	11577	4.63408	28692
3	11588	4.63952	28728
3	11589	4.63952	28764
3	11600	4.64496	28800
3	11601	4.64496	28836
3	11623	4.6504	28872
3	11624	4.6504	28908
3	11635	4.65584	28944
3	11636	4.65584	28980
3	11647	4.66128	29016
3	11648	4.66128	29052
3	11659	4.66672	29088
3	11660	4.66672	29124
3	11671	4.67216	29160
3	11672	4.67216	29196
3	11683	4.6776	29232
3	11684	4.6776	29268
3	11695	4.68304	29304
3	11696	4.68304	29340
3	11707	4.68848	29376
3	11708	4.68848	29412
3	11719	4.69392	29448
3	11720	4.69392	29484
3	11731	4.69936	29520
3	11732	4.69936	29556
3	11763	4.7048	29592
3	11764	4.7048	29628
3	11775	4.71024	29664
3	11776	4.71024	29700
3	11787	4.71568	29736
3	11788	4.71568	29772
3	11799	4.72112	29808
3	11800	4.72112	29844
3	11811	4.72656	29880
3	11812	4.72656	29916
3	11823	4.732	29952
3	11824	4.732	29988
3	11835	4.73744	30024
3	11836	4.73744	30060
3	11847	4.74288	30096
3	11848	4.74288	30132
3	11859	4.74832	30168
3	11860	4.74832	30204
3	11880	4.75376	30240
3	11881	4.75376	30276
3	11892	4.7592	30312
3	11893	4.7592	30348
3	11904	4.76464	30384
3	11905	4.76464	30420
3	11916	4.77008	30456
3	11917	4.77008	30492
3	11928	4.77552	30528
3	11929	4.77552	30564
3	11940	4.78096	30600
3	11941	4.78096	30636
3	11952	4.7864	30672
3	11953	4.7864	30708
3	11964	4.79184	30744
3	11965	4.79184	30780
3	11976	4.79728	30816
3	11977	4.79728	30852
3	12006	4.80272	30888
3	12007	4.80272	30924
3	12018	4.80816	30960
3	12019	4.80816	30996
3	12030	4.8136	31032
3	12031	4.8136	31068
3	12042	4.81904	31104
3	12043	4.81904	31140
3	12054	4.82448	31176
3	12055	4.82448	31212
3	12066	4.82992	31248
3	12067	4.82992	31284
[...]
3	16866	6.10144	44388
3	16876	6.10608	44424
3	16882	6.10688	44460
3	16892	6.11152	44496
3	16898	6.11232	44532
3	16908	6.11696	44568
3	16914	6.11776	44604
3	16924	6.1224	44640
3	16930	6.1232	44676
3	16940	6.12784	44712
3	16946	6.12864	44748
3	16956	6.13328	44784
3	16962	6.13408	44820
3	16972	6.13872	44856
3	16978	6.13952	44892
3	16988	6.14416	44928
3	16994	6.14496	44964
3	17004	6.1496	45000
3	17019	6.1504	45036
3	17029	6.15504	45072
3	17035	6.15584	45108
3	17045	6.16048	45144
3	17051	6.16128	45180
3	17061	6.16592	45216
3	17067	6.16672	45252
3	17077	6.17136	45288
3	17083	6.17216	45324
3	17093	6.1768	45360
3	17099	6.1776	45396
3	17109	6.18224	45432
3	17115	6.18304	45468
3	17125	6.18768	45504
3	17131	6.18848	45540
3	17141	6.19312	45576
3	17147	6.19392	45612
3	17157	6.19856	45648
3	17163	6.19936	45684
3	17191	6.204	45720
3	17197	6.2048	45756
3	17207	6.20944	45792
3	17213	6.21024	45828
3	17223	6.21488	45864
3	17229	6.21568	45900
3	17239	6.22032	45936
3	17245	6.22112	45972
3	17255	6.22576	46008
3	17261	6.22656	46044
3	17271	6.2312	46080
3	17277	6.232	46116
3	17287	6.23664	46152
3	17293	6.23744	46188
3	17303	6.24208	46224
3	17309	6.24288	46260
3	17319	6.24752	46296
3	17325	6.24832	46332
3	17344	6.25296	46368
3	17350	6.25376	46404
3	17360	6.2584	46440
3	17366	6.2592	46476
3	17376	6.26384	46512
3	17382	6.26464	46548
3	17392	6.26928	46584
3	17398	6.27008	46620
3	17408	6.27472	46656
3	17414	6.27552	46692
3	17424	6.28016	46728
3	17430	6.28096	46764
3	17440	6.2856	46800
3	17446	6.2864	46836
3	17456	6.29104	46872
3	17462	6.29184	46908
3	17472	6.29648	46944
3	17478	6.29728	46980
3	17506	6.30192	47016
3	17512	6.30272	47052
3	17522	6.30736	47088
3	17528	6.30816	47124
3	17538	6.3128	47160
3	17544	6.3136	47196
3	17554	6.31824	47232
3	17560	6.31904	47268
3	17570	6.32368	47304
3	17576	6.32448	47340
3	17586	6.32912	47376
3	17592	6.32992	47412
3	17602	6.33456	47448
3	17608	6.33536	47484
3	17618	6.34	47520
3	17624	6.3408	47556
3	17634	6.34544	47592
3	17640	6.34624	47628
3	17659	6.35088	47664
3	17665	6.35168	47700
3	17675	6.35632	47736
3	17681	6.35712	47772
3	17691	6.36176	47808
3	17697	6.36256	47844
3	17707	6.3672	47880
3	17713	6.368	47916
3	17723	6.37264	47952
3	17729	6.37344	47988
3	17739	6.37808	48024
3	17745	6.37888	48060
3	17755	6.38352	48096
3	17761	6.38432	48132
3	17771	6.38896	48168
3	17777	6.38976	48204
3	17791	6.3944	48240
3	17809	6.39984	48276
3	17849	6.40528	48312
3	17867	6.41072	48348
3	17885	6.41616	48384
3	17903	6.4216	48420
3	17921	6.42704	48456
3	17939	6.43248	48492
3	17957	6.43792	48528
3	17975	6.44336	48564
3	17997	6.4488	48600
3	18020	6.45424	48636
3	18041	6.45968	48672
3	18059	6.46512	48708
3	18077	6.47056	48744
3	18095	6.476	48780
3	18117	6.48144	48816
3	18135	6.48688	48852
3	18153	6.49232	48888
3	18171	6.49776	48924
3	18207	6.5032	48960
3	18225	6.50864	48996
3	18243	6.51408	49032
3	18261	6.51952	49068
3	18283	6.52496	49104
3	18301	6.5304	49140
3	18319	6.53584	49176
3	18337	6.54128	49212
3	18355	6.54672	49248
3	18382	6.55216	49284
3	18400	6.5576	49320
3	18418	6.56304	49356
3	18440	6.56848	49392
3	18458	6.57392	49428
3	18476	6.57936	49464
3	18494	6.5848	49500
3	18512	6.59024	49536
3	18530	6.59568	49572
3	18568	6.60112	49608
3	18586	6.60656	49644
3	18608	6.612	49680
3	18626	6.61744	49716
3	18644	6.62288	49752
3	18662	6.62832	49788
3	18680	6.63376	49824
3	18698	6.6392	49860
3	18716	6.64464	49896
3	18743	6.65008	49932
3	18961	6.65552	49968
3	18978	6.66096	50004
3	18988	6.6664	50040
3	18998	6.67184	50076
3	19008	6.67728	50112
3	19018	6.68272	50148
3	19028	6.68816	50184
3	19038	6.6936	50220
3	19048	6.69904	50256
3	19076	6.70448	50292
3	19086	6.70992	50328
3	19096	6.71536	50364
3	19106	6.7208	50400
3	19116	6.72624	50436
3	19126	6.73168	50472
3	19136	6.73712	50508
3	19146	6.74256	50544
3	19156	6.748	50580
3	19175	6.75344	50616
3	19185	6.75888	50652
3	19195	6.76432	50688
3	19205	6.76976	50724
3	19215	6.7752	50760
3	19225	6.78064	50796
3	19235	6.78608	50832
3	19245	6.79152	50868
3	19255	6.79696	50904
3	19283	6.8024	50940
3	19293	6.80784	50976
3	19303	6.81328	51012
3	19313	6.81872	51048
3	19323	6.82416	51084
3	19333	6.8296	51120
3	19343	6.83504	51156
3	19353	6.84048	51192
3	19363	6.84592	51228
3	19384	6.85136	51264
3	19394	6.8568	51300
3	19404	6.86224	51336
3	19414	6.86768	51372
3	19424	6.87312	51408
3	19434	6.87856	51444
3	19444	6.884	51480
3	19454	6.88944	51516
3	19464	6.89488	51552
3	19492	6.90032	51588
3	19502	6.90576	51624
3	19512	6.9112	51660
3	19522	6.91664	51696
3	19532	6.92208	51732
3	19542	6.92752	51768
3	19552	6.93296	51804
3	19562	6.9384	51840
3	19572	6.94384	51876
3	19582	6.94928	51912
3	19601	6.95472	51948
3	19611	6.96016	51984
3	19621	6.9656	52020
3	19839	6.97568	52056
3	19852	6.98112	52092
3	19866	6.98656	52128
3	19880	6.992	52164
3	19898	6.99744	52200
3	19930	7.00288	52236
3	19943	7.00832	52272
3	20161	7.01376	52308
3	20175	7.0192	52344
3	20189	7.02464	52380
3	20207	7.03008	52416
3	20221	7.03552	52452
3	20235	7.04096	52488
3	20249	7.0464	52524
3	20272	7.05184	52560
3	20286	7.05728	52596
3	20300	7.06272	52632
3	20314	7.06816	52668
3	20332	7.0736	52704
3	20346	7.07904	52740
3	20360	7.08448	52776
3	20374	7.08992	52812
3	20388	7.09536	52848
3	20422	7.1008	52884
3	20436	7.10624	52920
3	20450	7.11168	52956
3	20468	7.11712	52992
3	20482	7.12256	53028
3	20496	7.128	53064
3	20510	7.13344	53100
3	20524	7.13888	53136
3	20538	7.14432	53172
3	20552	7.14976	53208
3	20584	7.1552	53244
3	20602	7.16064	53280
3	20616	7.16608	53316
3	20630	7.17152	53352
3	20644	7.17696	53388
3	20658	7.1824	53424
3	20668	7.18784	53460
3	20674	7.18896	53496
3	20684	7.19328	53532
3	20690	7.1944	53568
3	20700	7.19872	53604
3	20706	7.19984	53640
3	20734	7.20416	53676
3	20740	7.20528	53712
3	20750	7.2096	53748
3	20756	7.21072	53784
3	20766	7.21504	53820
3	20772	7.21616	53856
3	20782	7.22048	53892
3	20788	7.2216	53928
3	20798	7.22592	53964
3	20804	7.22704	54000
3	20814	7.23136	54036
3	20820	7.23248	54072
3	20830	7.2368	54108
3	20836	7.23792	54144
3	20846	7.24224	54180
3	20852	7.24336	54216
3	20862	7.24768	54252
3	20868	7.2488	54288
3	20887	7.25312	54324
3	20893	7.25424	54360
3	20903	7.25856	54396
3	20909	7.25968	54432
3	20919	7.264	54468
3	20925	7.26512	54504
3	20935	7.26944	54540
3	20941	7.27056	54576
3	20951	7.27488	54612
3	20957	7.276	54648
3	20967	7.28032	54684
3	20973	7.28144	54720
3	20983	7.28576	54756
3	20989	7.28688	54792
3	20999	7.2912	54828
3	21005	7.29232	54864
3	21015	7.29664	54900
3	21021	7.29776	54936
3	21051	7.30208	54972
3	21057	7.3032	55008
3	21067	7.30752	55044
3	21073	7.30864	55080
3	21083	7.31296	55116
3	21089	7.31408	55152
3	21099	7.3184	55188
3	21105	7.31952	55224
3	21115	7.32384	55260
3	21121	7.32496	55296
3	21131	7.32928	55332
3	21137	7.3304	55368
3	21147	7.33472	55404
3	21153	7.33584	55440
3	21163	7.34016	55476
3	21169	7.34128	55512
3	21179	7.3456	55548
3	21185	7.34672	55584
3	21204	7.35104	55620
3	21210	7.35216	55656
3	21220	7.35648	55692
3	21226	7.3576	55728
3	21236	7.36192	55764
3	21242	7.36304	55800
3	21252	7.36736	55836
3	21258	7.36848	55872
3	21268	7.3728	55908
3	21274	7.37392	55944
3	21284	7.37824	55980
3	21290	7.37936	56016
3	21300	7.38368	56052
3	21306	7.3848	56088
3	21316	7.38912	56124
3	21322	7.39024	56160
3	21332	7.39456	56196
3	21338	7.39568	56232
3	21366	7.4	56268
3	21372	7.40112	56304
3	21382	7.40544	56340
3	21388	7.40656	56376
3	21398	7.41088	56412
3	21404	7.412	56448
3	21414	7.41632	56484
3	21420	7.41744	56520
3	21430	7.42176	56556
3	21436	7.42288	56592
3	21446	7.4272	56628
3	21452	7.42832	56664
3	21462	7.43264	56700
3	21468	7.43376	56736
3	21478	7.43808	56772
3	21484	7.4392	56808
3	21494	7.44352	56844
3	21500	7.44464	56880
3	21510	7.44896	56916
3	21525	7.45008	56952
3	21535	7.4544	56988
3	21541	7.45552	57024
3	21551	7.45984	57060
3	21557	7.46096	57096
3	21567	7.46528	57132
3	21573	7.4664	57168
3	21583	7.47072	57204
3	21589	7.47184	57240
3	21599	7.47616	57276
3	21605	7.47728	57312
3	21615	7.4816	57348
3	21621	7.48272	57384
3	21631	7.48704	57420
3	21637	7.48816	57456
3	21647	7.49248	57492
3	21653	7.4936	57528
3	21663	7.49792	57564
3	21669	7.49904	57600
3	21697	7.50336	57636
3	21703	7.50448	57672
3	21713	7.5088	57708
3	21719	7.50992	57744
3	21729	7.51424	57780
3	21735	7.51536	57816
3	21949	7.5208	57852
3	21966	7.52624	57888
3	21976	7.53168	57924
3	21986	7.53712	57960
3	21996	7.54256	57996
3	22006	7.548	58032
3	22025	7.55344	58068
3	22035	7.55888	58104
3	22045	7.56432	58140
3	22055	7.56976	58176
3	22065	7.5752	58212
3	22075	7.58064	58248
3	22085	7.58608	58284
3	22095	7.59152	58320
3	22105	7.59696	58356
3	22133	7.6024	58392
3	22143	7.60784	58428
3	22153	7.61328	58464
3	22163	7.61872	58500
3	22173	7.62416	58536
3	22183	7.6296	58572
3	22193	7.63504	58608
3	22203	7.64048	58644
3	22213	7.64592	58680
3	22234	7.65136	58716
3	22244	7.6568	58752
3	22254	7.66224	58788
3	22264	7.66768	58824
3	22274	7.67312	58860
3	22284	7.67856	58896
3	22294	7.684	58932
3	22304	7.68944	58968
3	22314	7.69488	59004
3	22342	7.70032	59040
3	22352	7.70576	59076
3	22362	7.7112	59112
3	22372	7.71664	59148
3	22382	7.72208	59184
3	22392	7.72752	59220
3	22499	7.78928	59256
3	22509	7.79472	59292
3	22537	7.80016	59328
3	22547	7.8056	59364
3	22557	7.81104	59400
3	22567	7.81648	59436
3	22577	7.82192	59472
3	22587	7.82736	59508
3	22597	7.8328	59544
3	22607	7.83824	59580
3	22617	7.84368	59616
3	22627	7.84912	59652
3	22646	7.85456	59688
3	22656	7.86	59724
3	22666	7.86544	59760
3	22676	7.87088	59796
3	22686	7.87632	59832
3	22696	7.88176	59868
3	22706	7.8872	59904
3	22716	7.89264	59940
3	22726	7.89808	59976
3	22754	7.90352	60012
3	22764	7.90896	60048
3	22774	7.9144	60084
3	22784	7.91984	60120
3	22794	7.92528	60156
3	22804	7.93072	60192
3	22814	7.93616	60228
3	22824	7.9416	60264
3	22834	7.94704	60300
3	22853	7.95248	60336
3	22863	7.95792	60372
3	22873	7.96336	60408
3	22883	7.9688	60444
3	22893	7.97424	60480
3	22903	7.97968	60516
3	22913	7.98512	60552
3	22923	7.99056	60588
3	22933	7.996	60624
3	22961	8.00144	60660
3	22971	8.00688	60696
3	22981	8.01232	60732
3	22991	8.01776	60768
3	23001	8.0232	60804
3	23011	8.02864	60840
3	23021	8.03408	60876
3	23031	8.03952	60912
3	23041	8.04496	60948
3	23060	8.0504	60984
3	23070	8.05584	61020
3	23080	8.06128	61056
3	23090	8.06672	61092
3	23100	8.07216	61128
3	23110	8.0776	61164
3	23120	8.08304	61200
3	23130	8.08848	61236
3	23140	8.09392	61272
3	23150	8.09936	61308
3	23178	8.1048	61344
3	23188	8.11024	61380
3	23198	8.11568	61416
3	23208	8.12112	61452
3	23218	8.12656	61488
3	23228	8.132	61524
3	23238	8.13744	61560
3	23248	8.14288	61596
3	23258	8.14832	61632
3	23277	8.15376	61668
3	23287	8.1592	61704
3	23297	8.16464	61740
3	23307	8.17008	61776
3	23317	8.17552	61812
3	23327	8.18096	61848
3	23337	8.1864	61884
3	23347	8.19184	61920
3	23357	8.19728	61956
3	23385	8.20272	61992
3	23395	8.20816	62028
3	23405	8.2136	62064
3	23415	8.21904	62100
3	23425	8.22448	62136
3	23435	8.22992	62172
3	23445	8.23536	62208
3	23455	8.2408	62244
3	23465	8.24624	62280
3	23484	8.25168	62316
3	23494	8.25712	62352
3	23504	8.26256	62388
3	23514	8.268	62424
3	23524	8.27344	62460
3	23534	8.27888	62496
3	23544	8.28432	62532
3	23554	8.28976	62568
3	23564	8.2952	62604
3	23592	8.30064	62640
3	23602	8.30608	62676
3	23612	8.31152	62712
3	23622	8.31696	62748
3	23632	8.3224	62784
3	23642	8.32784	62820
3	24581	8.60304	62856
3	24587	8.60752	62892
3	24593	8.60848	62928
3	24599	8.61296	62964
3	24605	8.61392	63000
3	24611	8.6184	63036
3	24617	8.61936	63072
3	24623	8.62384	63108
3	24629	8.6248	63144
3	24635	8.62928	63180
3	24641	8.63024	63216
3	24647	8.63472	63252
3	24653	8.63568	63288
3	24659	8.64016	63324
3	24665	8.64112	63360
3	24671	8.6456	63396
3	24677	8.64656	63432
3	24694	8.65104	63468
3	24700	8.652	63504
3	24713	8.65648	63540
3	24719	8.65744	63576
3	24725	8.66192	63612
3	24731	8.66288	63648
3	24737	8.66736	63684
3	24743	8.66832	63720
3	24749	8.6728	63756
3	24755	8.67376	63792
3	24761	8.67824	63828
3	24767	8.6792	63864
3	24773	8.68368	63900
3	24779	8.68464	63936
3	24785	8.68912	63972
3	24791	8.69008	64008
3	24797	8.69456	64044
3	24803	8.69552	64080
3	24827	8.7	64116
3	24833	8.70096	64152
3	24839	8.70544	64188
3	24845	8.7064	64224
3	24851	8.71088	64260
3	24857	8.71184	64296
3	24863	8.71632	64332
3	24869	8.71728	64368
3	24875	8.72176	64404
3	24881	8.72272	64440
3	24887	8.7272	64476
3	24893	8.72816	64512
3	24899	8.73264	64548
3	24905	8.7336	64584
3	24911	8.73808	64620
3	24917	8.73904	64656
3	24923	8.74352	64692
3	24929	8.74448	64728
3	24935	8.74896	64764
3	24941	8.74992	64800
3	24958	8.7544	64836
3	24964	8.75536	64872
3	24970	8.75984	64908
3	24976	8.7608	64944
3	24982	8.76528	64980
3	24988	8.76624	65016
3	24994	8.77072	65052
3	25000	8.77168	65088
3	25006	8.77616	65124
3	25012	8.77712	65160
3	25018	8.7816	65196
3	25024	8.78256	65232
3	25030	8.78704	65268
3	25036	8.788	65304
3	25042	8.79248	65340
3	25048	8.79344	65376
3	25054	8.79792	65412
3	25060	8.79888	65448
3	25086	8.80336	65484
3	25092	8.80432	65520
3	25098	8.8088	65556
3	25104	8.80976	65592
3	25110	8.81424	65628
3	25116	8.8152	65664
3	25122	8.81968	65700
3	25128	8.82064	65736
3	25134	8.82512	65772
3	25140	8.82608	65808
3	25146	8.83056	65844
3	25152	8.83152	65880
3	25158	8.836	65916
3	25164	8.83696	65952
3	25170	8.84144	65988
3	25176	8.8424	66024
3	25182	8.84688	66060
3	25188	8.84784	66096
3	25203	8.85232	66132
3	25209	8.85328	66168
3	25215	8.85776	66204
3	25221	8.85872	66240
3	25227	8.8632	66276
3	25233	8.86416	66312
3	25239	8.86864	66348
3	25245	8.8696	66384
3	25251	8.87408	66420
3	25257	8.87504	66456
3	25263	8.87952	66492
3	25269	8.88048	66528
3	25275	8.88496	66564
3	25281	8.88592	66600
3	25287	8.8904	66636
3	25293	8.89136	66672
3	25299	8.89584	66708
3	25305	8.8968	66744
3	25329	8.90128	66780
3	25335	8.90224	66816
3	25341	8.90672	66852
3	25347	8.90768	66888
3	25353	8.91216	66924
3	25359	8.91312	66960
3	25365	8.9176	66996
3	25371	8.91856	67032
3	25377	8.92304	67068
3	25383	8.924	67104
3	25389	8.92848	67140
3	25395	8.92944	67176
3	25401	8.93392	67212
3	25407	8.93488	67248
3	25413	8.93936	67284
3	25419	8.94032	67320
3	25425	8.9448	67356
3	25431	8.94576	67392
3	25446	8.95024	67428
3	25452	8.9512	67464
3	25458	8.95568	67500
3	25464	8.95664	67536
3	25470	8.96112	67572
3	25476	8.96208	67608
3	25482	8.96656	67644
3	25488	8.96752	67680
3	25494	8.972	67716
3	25500	8.97296	67752
3	25506	8.97744	67788
3	25512	8.9784	67824
3	25518	8.98288	67860
3	25524	8.98384	67896
3	25530	8.98832	67932
3	25536	8.98928	67968
3	25542	8.99376	68004
3	25548	8.99472	68040
3	25554	8.9992	68076
3	25578	9.00016	68112
3	25584	9.00464	68148
3	25590	9.0056	68184
3	25596	9.01008	68220
3	25602	9.01104	68256
3	25608	9.01552	68292
3	25614	9.01648	68328
3	25620	9.02096	68364
3	25626	9.02192	68400
3	25632	9.0264	68436
3	25638	9.02736	68472
3	25644	9.03184	68508
3	25650	9.0328	68544
3	25656	9.03728	68580
3	25662	9.03824	68616
3	25668	9.04272	68652
3	25674	9.04368	68688
3	25680	9.04816	68724
3	25686	9.04912	68760
3	25701	9.0536	68796
3	25707	9.05456	68832
3	25713	9.05904	68868
3	25719	9.06	68904
3	25725	9.06448	68940
3	25731	9.06544	68976
3	25737	9.06992	69012
3	25743	9.07088	69048
3	25749	9.07536	69084
3	25755	9.07632	69120
3	25761	9.0808	69156
3	25767	9.08176	69192
3	25773	9.08624	69228
3	25779	9.0872	69264
3	25785	9.09168	69300
3	25791	9.09264	69336
3	25797	9.09712	69372
3	25803	9.09808	69408
3	25827	9.10256	69444
3	25833	9.10352	69480
3	25839	9.108	69516
3	25845	9.10896	69552
3	25851	9.11344	69588
3	25857	9.1144	69624
3	25863	9.11888	69660
3	25869	9.11984	69696
3	25875	9.12432	69732
3	25881	9.12528	69768
3	25887	9.12976	69804
3	25893	9.13072	69840
3	25899	9.1352	69876
3	25905	9.13616	69912
3	25911	9.14064	69948
3	25917	9.1416	69984
3	25923	9.14608	70020
3	26429	9.17856	70056
3	26447	9.184	70092
3	26465	9.18944	70128
3	26486	9.19488	70164
3	26523	9.20032	70200
3	26541	9.20576	70236
3	26559	9.2112	70272
3	26577	9.21664	70308
3	26594	9.22208	70344
3	26615	9.22752	70380
3	26634	9.23296	70416
3	26652	9.2384	70452
3	26670	9.24384	70488
3	26688	9.24928	70524
3	26715	9.25472	70560
3	26733	9.26016	70596
3	26751	9.2656	70632
3	26772	9.27104	70668
3	26791	9.27648	70704
3	26809	9.28192	70740
3	26827	9.28736	70776
3	26845	9.2928	70812
3	26863	9.29824	70848
3	26901	9.30368	70884
3	26919	9.30912	70920
3	26940	9.31456	70956
3	26959	9.32	70992
3	26977	9.32544	71028
3	26995	9.33088	71064
3	27013	9.33632	71100
3	27031	9.34176	71136
3	27049	9.3472	71172
3	27078	9.35264	71208
3	27099	9.35808	71244
3	27118	9.36352	71280
3	27136	9.36896	71316
3	27154	9.3744	71352
3	27172	9.37984	71388
3	27190	9.38528	71424
3	27208	9.39072	71460
3	27226	9.39616	71496
3	27265	9.4016	71532
3	27284	9.40704	71568
3	27294	9.41216	71604
3	27300	9.41248	71640
3	27310	9.4176	71676
3	27316	9.41792	71712
3	27326	9.42304	71748
3	27332	9.42336	71784
3	27342	9.42848	71820
3	27348	9.4288	71856
3	27358	9.43392	71892
3	27364	9.43424	71928
3	27374	9.43936	71964
3	27380	9.43968	72000
3	27390	9.4448	72036
3	27396	9.44512	72072
3	27415	9.45024	72108
3	27421	9.45056	72144
3	27431	9.45568	72180
3	27437	9.456	72216
3	27447	9.46112	72252
3	27453	9.46144	72288
3	27463	9.46656	72324
3	27469	9.46688	72360
3	27479	9.472	72396
3	27485	9.47232	72432
3	27495	9.47744	72468
3	27501	9.47776	72504
3	27511	9.48288	72540
3	27517	9.4832	72576
3	27527	9.48832	72612
3	27533	9.48864	72648
3	27543	9.49376	72684
3	27549	9.49408	72720
3	27559	9.4992	72756
3	27565	9.49952	72792
3	27593	9.50464	72828
3	27599	9.50496	72864
3	27609	9.51008	72900
3	27615	9.5104	72936
3	27625	9.51552	72972
3	27631	9.51584	73008
3	27641	9.52096	73044
3	27647	9.52128	73080
3	27657	9.5264	73116
3	27663	9.52672	73152
3	27673	9.53184	73188
3	27679	9.53216	73224
3	27689	9.53728	73260
3	27695	9.5376	73296
3	27705	9.54272	73332
3	27711	9.54304	73368
3	27721	9.54816	73404
3	27727	9.54848	73440
3	27746	9.5536	73476
3	27752	9.55392	73512
3	27762	9.55904	73548
3	27768	9.55936	73584
3	27778	9.56448	73620
3	27784	9.5648	73656
3	27794	9.56992	73692
3	27800	9.57024	73728
3	27810	9.57536	73764
3	27816	9.57568	73800
3	27826	9.5808	73836
3	27832	9.58112	73872
3	27842	9.58624	73908
3	27848	9.58656	73944
3	27858	9.59168	73980
3	27864	9.592	74016
3	27874	9.59712	74052
3	27880	9.59744	74088
3	27908	9.60256	74124
3	27914	9.60288	74160
3	27924	9.608	74196
3	27930	9.60832	74232
3	27940	9.61344	74268
3	27946	9.61376	74304
3	27956	9.61888	74340
3	27962	9.6192	74376
3	27972	9.62432	74412
3	27978	9.62464	74448
3	27988	9.62976	74484
3	27994	9.63008	74520
3	28004	9.6352	74556
3	28010	9.63552	74592
3	28020	9.64064	74628
3	28026	9.64096	74664
3	28036	9.64608	74700
3	28042	9.6464	74736
3	28061	9.65152	74772
3	28067	9.65184	74808
3	28077	9.65696	74844
3	28083	9.65728	74880
3	28093	9.6624	74916
3	28099	9.66272	74952
3	28109	9.66784	74988
3	28115	9.66816	75024
3	28125	9.67328	75060
3	28131	9.6736	75096
3	28141	9.67872	75132
3	28147	9.67904	75168
3	28157	9.68416	75204
3	28163	9.68448	75240
3	28173	9.6896	75276
3	28179	9.68992	75312
3	28189	9.69504	75348
3	28195	9.69536	75384
3	28223	9.70048	75420
3	28229	9.7008	75456
3	28239	9.70592	75492
3	28245	9.70624	75528
3	28255	9.71136	75564
3	28261	9.71168	75600
3	28271	9.7168	75636
3	28277	9.71712	75672
3	28294	9.72224	75708
3	28309	9.72768	75744
3	28323	9.73312	75780
3	28337	9.73856	75816
3	28351	9.744	75852
3	28365	9.74944	75888
3	28388	9.75488	75924
3	28402	9.76032	75960
3	28419	9.76576	75996
3	28434	9.7712	76032
3	28448	9.77664	76068
3	28462	9.78208	76104
3	28472	9.78752	76140
3	28486	9.79296	76176
3	28500	9.7984	76212
3	28536	9.80384	76248
3	28550	9.80928	76284
3	28564	9.81472	76320
3	28578	9.82016	76356
3	28592	9.8256	76392
3	28606	9.83104	76428
3	28620	9.83648	76464
3	28634	9.84192	76500
3	28652	9.84736	76536
3	28675	9.8528	76572
3	28689	9.85824	76608
3	28702	9.86368	76644
3	28920	9.86912	76680
3	28934	9.87456	76716
3	28952	9.88	76752
3	28966	9.88544	76788
3	28980	9.89088	76824
3	28994	9.89632	76860
3	29026	9.90176	76896
3	29040	9.9072	76932
3	29054	9.91264	76968
3	29068	9.91808	77004
3	29086	9.92352	77040
3	29100	9.92896	77076
3	29114	9.9344	77112
3	29128	9.93984	77148
3	29142	9.94528	77184
3	29165	9.95072	77220
3	29406	9.96976	77256
3	29416	9.9752	77292
3	29426	9.98064	77328
3	29436	9.98608	77364
3	29446	9.99152	77400
3	29456	9.99696	77436

