version 2
run A-1-20190909-00:24:43-6358
attr configname A
attr datetime 20190909-00:24:43
attr experiment A
attr inifile SimV2.ini
attr iterationvars $0=3
attr iterationvarsf 3-
attr measurement $0=3
attr network NetworkTormV2
attr processid 6358
attr repetition 0
attr replication #0
attr resultdir results
attr runnumber 1
attr seedset 1
param **.mobility.traceFile "\"paths/A.movements\""
param **.numNodes 3
param **.wirelessIfc.wirelessRange 25m
param **.bluetoothIfc.wirelessRange 25m
param **.numNodes 2
param **.application.usedRNG 1
param **.application.dataGenerationInterval 1ms
param **.application.dataSizeInBytes 10
param **.application.ttl 999999s
param **application.destinationAddr "\"Wf:00:00:00:00:02\""
param **application.destinationBTAddr "\"Bt:00:00:00:00:02\""
param **application.nodesThatGen true
param **application.nodesGenMsg "\"0\""
param **application.startMultipleMsg true
param **application.numMultipleMsg 100
param **application.hopsListSize 50
param **.routingLayer "\"RoutingLayer\""
param **.routing.maximumCacheSize 5000byte
param **.routing.maximumHopCount 25
param **.routing.useTTL false
param **.neighboring.antiEntropyInterval 200ms
param **.neighboring.maximumRandomBackoffDuration 1s
param **.neighboring.delayPerDataMsg 0.1
param **neighboring.usedRNG 2
param **.neighboring.GWAddr "\"02:00:00:00:00:09\""
param **.neighboring.sendWifiFirst true
param **.neighboring.maxLengthGraph 20
param **.wirelessIfc.wirelessRange 15m
param **.wirelessIfc.neighbourScanInterval 50ms
param **.wirelessIfc.bandwidthBitRate 100000bps
param **.wirelessIfc.wirelessHeaderSize 32byte
param **.wirelessIfc.minSSI -90
param **.bluetoothIfc.wirelessRange 15m
param **.bluetoothIfc.neighbourScanInterval 100ms
param **.bluetoothIfc.bandwidthBitRate 100000bps
param **.bluetoothIfc.wirelessHeaderSize 16byte
param **.bluetoothIfc.minSSI -90
param **.mobilityType "\"BonnMotionMobility\""
param **.mobility.traceFile "\"paths/Moves2.movements\""
param **.mobility.nodeId -1

vector 0 NetworkTormV2 neighbourhoodSize:vector ETV
attr source neighbourhoodSize
vector 1 NetworkTormV2 deliveryRatio:vector ETV
attr source sum(totalDataBytesReceived)/sum(totalDataBytesReceivableByAllNodes)
vector 2 NetworkTormV2 dataBytesReceivedSum:vector ETV
attr source sum(dataBytesReceived)
vector 3 NetworkTormV2 totalBytesReceivedSum:vector ETV
attr source sum(totalBytesReceived)
0	10	0.05	1
0	11	0.05	2
0	12	0.05	1
0	20	0.1	1
0	21	0.1	2
0	22	0.1	1
0	23	0.1	1
0	24	0.1	2
0	25	0.1	1
0	137	0.15	1
0	138	0.15	2
0	139	0.15	1
0	246	0.2	1
0	247	0.2	2
0	248	0.2	1
0	249	0.2	1
0	250	0.2	2
0	251	0.2	1
0	264	0.25	1
0	265	0.25	2
0	266	0.25	1
0	273	0.3	1
0	274	0.3	2
0	275	0.3	1
0	276	0.3	1
0	277	0.3	2
0	278	0.3	1
0	291	0.35	1
0	292	0.35	2
0	293	0.35	1
0	300	0.4	1
0	301	0.4	2
0	302	0.4	1
0	303	0.4	1
0	304	0.4	2
0	305	0.4	1
0	318	0.45	1
0	319	0.45	2
0	320	0.45	1
0	327	0.5	1
0	328	0.5	2
0	329	0.5	1
0	330	0.5	1
0	331	0.5	2
0	332	0.5	1
0	345	0.55	1
0	346	0.55	2
0	347	0.55	1
0	354	0.6	1
0	355	0.6	2
0	356	0.6	1
0	357	0.6	1
0	358	0.6	2
0	359	0.6	1
0	372	0.65	1
0	373	0.65	2
0	374	0.65	1
0	381	0.7	1
0	382	0.7	2
0	383	0.7	1
0	384	0.7	1
0	385	0.7	2
0	386	0.7	1
0	399	0.75	1
0	400	0.75	2
0	401	0.75	1
0	408	0.8	1
0	409	0.8	2
0	410	0.8	1
0	411	0.8	1
0	412	0.8	2
0	413	0.8	1
0	426	0.85	1
0	427	0.85	2
0	428	0.85	1
0	435	0.9	1
0	436	0.9	2
0	437	0.9	1
0	438	0.9	1
0	439	0.9	2
0	440	0.9	1
0	453	0.95	1
0	454	0.95	2
0	455	0.95	1
0	462	1	1
0	463	1	2
0	464	1	1
0	465	1	1
0	466	1	2
0	467	1	1
0	480	1.05	1
0	481	1.05	2
0	482	1.05	1
0	489	1.1	1
0	490	1.1	2
0	491	1.1	1
0	492	1.1	1
0	493	1.1	2
0	494	1.1	1
0	559	1.15	1
0	560	1.15	2
0	561	1.15	1
0	568	1.2	1
0	569	1.2	2
0	570	1.2	1
0	571	1.2	1
0	572	1.2	2
0	573	1.2	1
0	586	1.25	1
0	587	1.25	2
0	588	1.25	1
0	595	1.3	1
0	596	1.3	2
0	597	1.3	1
0	598	1.3	1
0	599	1.3	2
0	600	1.3	1
0	613	1.35	1
0	614	1.35	2
0	615	1.35	1
0	934	1.4	1
0	935	1.4	2
0	936	1.4	1
0	937	1.4	1
0	938	1.4	2
0	939	1.4	1
0	1042	1.45	1
0	1043	1.45	2
0	1044	1.45	1
0	1147	1.5	1
0	1148	1.5	2
0	1149	1.5	1
0	1150	1.5	1
0	1151	1.5	2
0	1152	1.5	1
0	1255	1.55	1
0	1256	1.55	2
0	1257	1.55	1
0	1489	1.6	1
0	1490	1.6	2
0	1491	1.6	1
0	1492	1.6	1
0	1493	1.6	2
0	1494	1.6	1
0	1651	1.65	1
0	1652	1.65	2
0	1653	1.65	1
0	1804	1.7	1
0	1805	1.7	2
0	1806	1.7	1
0	1807	1.7	1
0	1808	1.7	2
0	1809	1.7	1
0	1978	1.75	1
0	1979	1.75	2
0	1980	1.75	1
0	2127	1.8	1
0	2128	1.8	2
0	2129	1.8	1
0	2130	1.8	1
0	2131	1.8	2
0	2132	1.8	1
0	2288	1.85	1
0	2289	1.85	2
0	2290	1.85	1
0	2550	1.9	1
0	2551	1.9	2
0	2552	1.9	1
0	2553	1.9	1
0	2554	1.9	2
0	2555	1.9	1
0	2676	1.95	1
0	2677	1.95	2
0	2678	1.95	1
0	2781	2	1
0	2782	2	2
0	2783	2	1
0	2784	2	1
0	2785	2	2
0	2786	2	1
0	2889	2.05	1
0	2890	2.05	2
0	2891	2.05	1
0	3005	2.1	1
0	3006	2.1	2
0	3007	2.1	1
0	3008	2.1	1
0	3009	2.1	2
0	3010	2.1	1
0	3113	2.15	1
0	3114	2.15	2
0	3115	2.15	1
0	3212	2.2	1
0	3213	2.2	2
0	3214	2.2	1
0	3215	2.2	1
0	3216	2.2	2
0	3217	2.2	1
0	3326	2.25	1
0	3327	2.25	2
0	3328	2.25	1
0	3423	2.3	1
0	3424	2.3	2
0	3425	2.3	1
0	3426	2.3	1
0	3427	2.3	2
0	3428	2.3	1
0	3478	2.35	1
0	3479	2.35	2
0	3480	2.35	1
0	3487	2.4	1
0	3488	2.4	2
0	3489	2.4	1
0	3490	2.4	1
0	3491	2.4	2
0	3492	2.4	1
0	3518	2.45	1
0	3519	2.45	2
0	3520	2.45	1
0	3540	2.5	1
0	3541	2.5	2
0	3542	2.5	1
0	3543	2.5	1
0	3544	2.5	2
0	3545	2.5	1
0	3558	2.55	1
0	3559	2.55	2
0	3560	2.55	1
0	3580	2.6	1
0	3581	2.6	2
0	3582	2.6	1
0	3583	2.6	1
0	3584	2.6	2
0	3585	2.6	1
0	3611	2.65	1
0	3612	2.65	2
0	3613	2.65	1
0	3620	2.7	1
0	3621	2.7	2
0	3622	2.7	1
0	3623	2.7	1
0	3624	2.7	2
0	3625	2.7	1
0	3651	2.75	1
0	3652	2.75	2
0	3653	2.75	1
0	3673	2.8	1
0	3674	2.8	2
0	3675	2.8	1
0	3676	2.8	1
0	3677	2.8	2
0	3678	2.8	1
0	3691	2.85	1
0	3692	2.85	2
0	3693	2.85	1
0	3713	2.9	1
0	3714	2.9	2
0	3715	2.9	1
0	3716	2.9	1
0	3717	2.9	2
0	3718	2.9	1
0	3744	2.95	1
0	3745	2.95	2
0	3746	2.95	1
0	3753	3	1
0	3754	3	2
0	3755	3	1
0	3756	3	1
0	3757	3	2
0	3758	3	1
0	3784	3.05	1
0	3785	3.05	2
0	3786	3.05	1
0	3806	3.1	1
0	3807	3.1	2
0	3808	3.1	1
0	3809	3.1	1
0	3810	3.1	2
0	3811	3.1	1
0	3824	3.15	1
0	3825	3.15	2
0	3826	3.15	1
0	3846	3.2	1
0	3847	3.2	2
0	3848	3.2	1
0	3849	3.2	1
0	3850	3.2	2
0	3851	3.2	1
0	3877	3.25	1
0	3878	3.25	2
0	3879	3.25	1
0	3886	3.3	1
0	3887	3.3	2
0	3888	3.3	1
0	3889	3.3	1
0	3890	3.3	2
0	3891	3.3	1
0	3917	3.35	1
0	3918	3.35	2
0	3919	3.35	1
0	3939	3.4	1
0	3940	3.4	2
0	3941	3.4	1
0	3942	3.4	1
0	3943	3.4	2
0	3944	3.4	1
0	3957	3.45	1
0	3958	3.45	2
0	3959	3.45	1
0	3979	3.5	1
0	3980	3.5	2
0	3981	3.5	1
0	3982	3.5	1
0	3983	3.5	2
0	3984	3.5	1
0	4010	3.55	1
0	4011	3.55	2
0	4012	3.55	1
0	4019	3.6	1
0	4020	3.6	2
0	4021	3.6	1
0	4022	3.6	1
0	4023	3.6	2
0	4024	3.6	1
0	4050	3.65	1
0	4051	3.65	2
0	4052	3.65	1
0	4072	3.7	1
0	4073	3.7	2
0	4074	3.7	1
0	4075	3.7	1
0	4076	3.7	2
0	4077	3.7	1
0	4090	3.75	1
0	4091	3.75	2
0	4092	3.75	1
0	4112	3.8	1
0	4113	3.8	2
0	4114	3.8	1
0	4115	3.8	1
0	4116	3.8	2
0	4117	3.8	1
0	4143	3.85	1
0	4144	3.85	2
0	4145	3.85	1
0	4152	3.9	1
0	4153	3.9	2
0	4154	3.9	1
0	4155	3.9	1
0	4156	3.9	2
0	4157	3.9	1
0	4183	3.95	1
0	4184	3.95	2
0	4185	3.95	1
0	4205	4	1
0	4206	4	2
0	4207	4	1
0	4208	4	1
0	4209	4	2
0	4210	4	1
0	4223	4.05	1
0	4224	4.05	2
0	4225	4.05	1
0	4245	4.1	1
0	4246	4.1	2
0	4247	4.1	1
0	4248	4.1	1
0	4249	4.1	2
0	4250	4.1	1
0	4276	4.15	1
0	4277	4.15	2
0	4278	4.15	1
0	4285	4.2	1
0	4286	4.2	2
0	4287	4.2	1
0	4288	4.2	1
0	4289	4.2	2
0	4290	4.2	1
0	4316	4.25	1
0	4317	4.25	2
0	4318	4.25	1
0	4338	4.3	1
0	4339	4.3	2
0	4340	4.3	1
0	4341	4.3	1
0	4342	4.3	2
0	4343	4.3	1
0	4356	4.35	1
0	4357	4.35	2
0	4358	4.35	1
0	4378	4.4	1
0	4379	4.4	2
0	4380	4.4	1
0	4381	4.4	1
0	4382	4.4	2
0	4383	4.4	1
0	4409	4.45	1
0	4410	4.45	2
0	4411	4.45	1
0	4418	4.5	1
0	4419	4.5	2
0	4420	4.5	1
0	4421	4.5	1
0	4422	4.5	2
0	4423	4.5	1
0	4449	4.55	1
0	4450	4.55	2
0	4451	4.55	1
0	4471	4.6	1
0	4472	4.6	2
0	4473	4.6	1
0	4474	4.6	1
0	4475	4.6	2
0	4476	4.6	1
0	4489	4.65	1
0	4490	4.65	2
0	4491	4.65	1
0	4511	4.7	1
0	4512	4.7	2
0	4513	4.7	1
0	4514	4.7	1
0	4515	4.7	2
0	4516	4.7	1
0	4542	4.75	1
0	4543	4.75	2
0	4544	4.75	1
0	4551	4.8	1
0	4552	4.8	2
0	4553	4.8	1
0	4554	4.8	1
0	4555	4.8	2
0	4556	4.8	1
0	4582	4.85	1
0	4583	4.85	2
0	4584	4.85	1
0	4604	4.9	1
0	4605	4.9	2
0	4606	4.9	1
0	4607	4.9	1
0	4608	4.9	2
0	4609	4.9	1
0	4622	4.95	1
0	4623	4.95	2
0	4624	4.95	1
0	4644	5	1
0	4645	5	2
0	4646	5	1
0	4647	5	1
0	4648	5	2
0	4649	5	1
0	4675	5.05	1
0	4676	5.05	2
0	4677	5.05	1
0	4684	5.1	1
0	4685	5.1	2
0	4686	5.1	1
0	4687	5.1	1
0	4688	5.1	2
0	4689	5.1	1
0	4715	5.15	1
0	4716	5.15	2
0	4717	5.15	1
0	4737	5.2	1
0	4738	5.2	2
0	4739	5.2	1
0	4740	5.2	1
0	4741	5.2	2
0	4742	5.2	1
0	4755	5.25	1
0	4756	5.25	2
0	4757	5.25	1
0	4777	5.3	1
0	4778	5.3	2
0	4779	5.3	1
0	4780	5.3	1
0	4781	5.3	2
0	4782	5.3	1
0	4808	5.35	1
0	4809	5.35	2
0	4810	5.35	1
0	4817	5.4	1
0	4818	5.4	2
0	4819	5.4	1
0	4820	5.4	1
0	4821	5.4	2
0	4822	5.4	1
0	4848	5.45	1
0	4849	5.45	2
0	4850	5.45	1
0	4870	5.5	1
0	4871	5.5	2
0	4872	5.5	1
0	4873	5.5	1
0	4874	5.5	2
0	4875	5.5	1
0	4888	5.55	1
0	4889	5.55	2
0	4890	5.55	1
0	4910	5.6	1
0	4911	5.6	2
0	4912	5.6	1
0	4913	5.6	1
0	4914	5.6	2
0	4915	5.6	1
0	4941	5.65	1
0	4942	5.65	2
0	4943	5.65	1
0	4950	5.7	1
0	4951	5.7	2
0	4952	5.7	1
0	4953	5.7	1
0	4954	5.7	2
0	4955	5.7	1
0	4981	5.75	1
0	4982	5.75	2
0	4983	5.75	1
0	5003	5.8	1
0	5004	5.8	2
0	5005	5.8	1
0	5006	5.8	1
0	5007	5.8	2
0	5008	5.8	1
0	5021	5.85	1
0	5022	5.85	2
0	5023	5.85	1
0	5043	5.9	1
0	5044	5.9	2
0	5045	5.9	1
0	5046	5.9	1
0	5047	5.9	2
0	5048	5.9	1
0	5074	5.95	1
0	5075	5.95	2
0	5076	5.95	1
0	5083	6	1
0	5084	6	2
0	5085	6	1
0	5086	6	1
0	5087	6	2
0	5088	6	1
0	5114	6.05	1
0	5115	6.05	2
0	5116	6.05	1
0	5136	6.1	1
0	5137	6.1	2
0	5138	6.1	1
0	5139	6.1	1
0	5140	6.1	2
0	5141	6.1	1
0	5154	6.15	1
0	5155	6.15	2
0	5156	6.15	1
0	5176	6.2	1
0	5177	6.2	2
0	5178	6.2	1
0	5179	6.2	1
0	5180	6.2	2
0	5181	6.2	1
0	5207	6.25	1
0	5208	6.25	2
0	5209	6.25	1
0	5216	6.3	1
0	5217	6.3	2
0	5218	6.3	1
0	5219	6.3	1
0	5220	6.3	2
0	5221	6.3	1
0	5247	6.35	1
0	5248	6.35	2
0	5249	6.35	1
0	5269	6.4	1
0	5270	6.4	2
0	5271	6.4	1
0	5272	6.4	1
0	5273	6.4	2
0	5274	6.4	1
0	5287	6.45	1
0	5288	6.45	2
0	5289	6.45	1
0	5309	6.5	1
0	5310	6.5	2
0	5311	6.5	1
0	5312	6.5	1
0	5313	6.5	2
0	5314	6.5	1
0	5340	6.55	1
0	5341	6.55	2
0	5342	6.55	1
0	5349	6.6	1
0	5350	6.6	2
0	5351	6.6	1
0	5352	6.6	1
0	5353	6.6	2
0	5354	6.6	1
0	5380	6.65	1
0	5381	6.65	2
0	5382	6.65	1
0	5402	6.7	1
0	5403	6.7	2
0	5404	6.7	1
0	5405	6.7	1
0	5406	6.7	2
0	5407	6.7	1
0	5420	6.75	1
0	5421	6.75	2
0	5422	6.75	1
0	5442	6.8	1
0	5443	6.8	2
0	5444	6.8	1
0	5445	6.8	1
0	5446	6.8	2
0	5447	6.8	1
0	5473	6.85	1
0	5474	6.85	2
0	5475	6.85	1
0	5482	6.9	1
0	5483	6.9	2
0	5484	6.9	1
0	5485	6.9	1
0	5486	6.9	2
0	5487	6.9	1
0	5513	6.95	1
0	5514	6.95	2
0	5515	6.95	1
0	5535	7	1
0	5536	7	2
0	5537	7	1
0	5538	7	1
0	5539	7	2
0	5540	7	1
0	5553	7.05	1
0	5554	7.05	2
0	5555	7.05	1
0	5575	7.1	1
0	5576	7.1	2
0	5577	7.1	1
0	5578	7.1	1
0	5579	7.1	2
0	5580	7.1	1
0	5606	7.15	1
0	5607	7.15	2
0	5608	7.15	1
0	5615	7.2	1
0	5616	7.2	2
0	5617	7.2	1
0	5618	7.2	1
0	5619	7.2	2
0	5620	7.2	1
0	5646	7.25	1
0	5647	7.25	2
0	5648	7.25	1
0	5668	7.3	1
0	5669	7.3	2
0	5670	7.3	1
0	5671	7.3	1
0	5672	7.3	2
0	5673	7.3	1
0	5686	7.35	1
0	5687	7.35	2
0	5688	7.35	1
0	5708	7.4	1
0	5709	7.4	2
0	5710	7.4	1
0	5711	7.4	1
0	5712	7.4	2
0	5713	7.4	1
0	5739	7.45	1
0	5740	7.45	2
0	5741	7.45	1
0	5748	7.5	1
0	5749	7.5	2
0	5750	7.5	1
0	5751	7.5	1
0	5752	7.5	2
0	5753	7.5	1
0	5779	7.55	1
0	5780	7.55	2
0	5781	7.55	1
0	5801	7.6	1
0	5802	7.6	2
0	5803	7.6	1
0	5804	7.6	1
0	5805	7.6	2
0	5806	7.6	1
0	5819	7.65	1
0	5820	7.65	2
0	5821	7.65	1
0	5841	7.7	1
0	5842	7.7	2
0	5843	7.7	1
0	5844	7.7	1
0	5845	7.7	2
0	5846	7.7	1
0	5872	7.75	1
0	5873	7.75	2
0	5874	7.75	1
0	5881	7.8	1
0	5882	7.8	2
0	5883	7.8	1
0	5884	7.8	1
0	5885	7.8	2
0	5886	7.8	1
0	5912	7.85	1
0	5913	7.85	2
0	5914	7.85	1
0	5934	7.9	1
0	5935	7.9	2
0	5936	7.9	1
0	5937	7.9	1
0	5938	7.9	2
0	5939	7.9	1
0	5952	7.95	1
0	5953	7.95	2
0	5954	7.95	1
0	5974	8	1
0	5975	8	2
0	5976	8	1
0	5977	8	1
0	5978	8	2
0	5979	8	1
0	6005	8.05	1
0	6006	8.05	2
0	6007	8.05	1
0	6014	8.1	1
0	6015	8.1	2
0	6016	8.1	1
0	6017	8.1	1
0	6018	8.1	2
0	6019	8.1	1
0	6045	8.15	1
0	6046	8.15	2
0	6047	8.15	1
0	6067	8.2	1
0	6068	8.2	2
0	6069	8.2	1
0	6070	8.2	1
0	6071	8.2	2
0	6072	8.2	1
0	6085	8.25	1
0	6086	8.25	2
0	6087	8.25	1
0	6107	8.3	1
0	6108	8.3	2
0	6109	8.3	1
0	6110	8.3	1
0	6111	8.3	2
0	6112	8.3	1
0	6138	8.35	1
0	6139	8.35	2
0	6140	8.35	1
0	6147	8.4	1
0	6148	8.4	2
0	6149	8.4	1
0	6150	8.4	1
0	6151	8.4	2
0	6152	8.4	1
0	6178	8.45	1
0	6179	8.45	2
0	6180	8.45	1
0	6200	8.5	1
0	6201	8.5	2
0	6202	8.5	1
0	6203	8.5	1
0	6204	8.5	2
0	6205	8.5	1
0	6218	8.55	1
0	6219	8.55	2
0	6220	8.55	1
0	6240	8.6	1
0	6241	8.6	2
0	6242	8.6	1
0	6243	8.6	1
0	6244	8.6	2
0	6245	8.6	1
0	6271	8.65	1
0	6272	8.65	2
0	6273	8.65	1
0	6280	8.7	1
0	6281	8.7	2
0	6282	8.7	1
0	6283	8.7	1
0	6284	8.7	2
0	6285	8.7	1
0	6311	8.75	1
0	6312	8.75	2
0	6313	8.75	1
0	6333	8.8	1
0	6334	8.8	2
0	6335	8.8	1
0	6336	8.8	1
0	6337	8.8	2
0	6338	8.8	1
0	6351	8.85	1
0	6352	8.85	2
0	6353	8.85	1
0	6373	8.9	1
0	6374	8.9	2
0	6375	8.9	1
0	6376	8.9	1
0	6377	8.9	2
0	6378	8.9	1
0	6404	8.95	1
0	6405	8.95	2
0	6406	8.95	1
0	6413	9	1
0	6414	9	2
0	6415	9	1
0	6416	9	1
0	6417	9	2
0	6418	9	1
0	6444	9.05	1
0	6445	9.05	2
0	6446	9.05	1
0	6466	9.1	1
0	6467	9.1	2
0	6468	9.1	1
0	6469	9.1	1
0	6470	9.1	2
0	6471	9.1	1
0	6484	9.15	1
0	6485	9.15	2
0	6486	9.15	1
0	6506	9.2	1
0	6507	9.2	2
0	6508	9.2	1
0	6509	9.2	1
0	6510	9.2	2
0	6511	9.2	1
0	6537	9.25	1
0	6538	9.25	2
0	6539	9.25	1
0	6546	9.3	1
0	6547	9.3	2
0	6548	9.3	1
0	6549	9.3	1
0	6550	9.3	2
0	6551	9.3	1
0	6577	9.35	1
0	6578	9.35	2
0	6579	9.35	1
0	6599	9.4	1
0	6600	9.4	2
0	6601	9.4	1
0	6602	9.4	1
0	6603	9.4	2
0	6604	9.4	1
0	6617	9.45	1
0	6618	9.45	2
0	6619	9.45	1
0	6639	9.5	1
0	6640	9.5	2
0	6641	9.5	1
0	6642	9.5	1
0	6643	9.5	2
0	6644	9.5	1
0	6670	9.55	1
0	6671	9.55	2
0	6672	9.55	1
0	6679	9.6	1
0	6680	9.6	2
0	6681	9.6	1
0	6682	9.6	1
0	6683	9.6	2
0	6684	9.6	1
0	6710	9.65	1
0	6711	9.65	2
0	6712	9.65	1
0	6732	9.7	1
0	6733	9.7	2
0	6734	9.7	1
0	6735	9.7	1
0	6736	9.7	2
0	6737	9.7	1
0	6750	9.75	1
0	6751	9.75	2
0	6752	9.75	1
0	6772	9.8	1
0	6773	9.8	2
0	6774	9.8	1
0	6775	9.8	1
0	6776	9.8	2
0	6777	9.8	1
0	6803	9.85	1
0	6804	9.85	2
0	6805	9.85	1
0	6812	9.9	1
0	6813	9.9	2
0	6814	9.9	1
0	6815	9.9	1
0	6816	9.9	2
0	6817	9.9	1
0	6843	9.95	1
0	6844	9.95	2
0	6845	9.95	1
0	6865	10	1
0	6866	10	2
0	6867	10	1
0	6868	10	1
0	6869	10	2
0	6870	10	1
1	19	0.1	-nan
1	39	0.101	-nan
1	41	0.102	-nan
1	43	0.103	-nan
1	45	0.104	-nan
1	47	0.105	-nan
1	49	0.106	-nan
1	51	0.107	-nan
1	53	0.108	-nan
1	55	0.109	-nan
1	57	0.11	-nan
1	59	0.111	-nan
1	61	0.112	-nan
1	63	0.113	-nan
1	65	0.114	-nan
1	67	0.115	-nan
1	69	0.116	-nan
1	71	0.117	-nan
1	73	0.118	-nan
1	75	0.119	-nan
1	77	0.12	-nan
1	79	0.121	-nan
1	81	0.122	-nan
1	83	0.123	-nan
1	85	0.124	-nan
1	87	0.125	-nan
1	89	0.126	-nan
1	91	0.127	-nan
1	93	0.128	-nan
1	95	0.129	-nan
1	97	0.13	-nan
1	99	0.131	-nan
1	101	0.132	-nan
1	103	0.133	-nan
1	105	0.134	-nan
1	107	0.135	-nan
1	109	0.136	-nan
1	111	0.137	-nan
1	113	0.138	-nan
1	115	0.139	-nan
1	117	0.14	-nan
1	119	0.141	-nan
1	121	0.142	-nan
1	123	0.143	-nan
1	125	0.144	-nan
1	127	0.145	-nan
1	129	0.146	-nan
1	131	0.147	-nan
1	133	0.148	-nan
1	135	0.149	-nan
1	140	0.15	-nan
1	148	0.151	-nan
1	150	0.152	-nan
1	152	0.153	-nan
1	154	0.154	-nan
1	156	0.155	-nan
1	158	0.156	-nan
1	160	0.157	-nan
1	162	0.158	-nan
1	164	0.159	-nan
1	166	0.16	-nan
1	168	0.161	-nan
1	170	0.162	-nan
1	172	0.163	-nan
1	174	0.164	-nan
1	176	0.165	-nan
1	178	0.166	-nan
1	180	0.167	-nan
1	182	0.168	-nan
1	184	0.169	-nan
1	186	0.17	-nan
1	188	0.171	-nan
1	190	0.172	-nan
1	192	0.173	-nan
1	194	0.174	-nan
1	196	0.175	-nan
1	198	0.176	-nan
1	200	0.177	-nan
1	202	0.178	-nan
1	204	0.179	-nan
1	206	0.18	-nan
1	208	0.181	-nan
1	210	0.182	-nan
1	212	0.183	-nan
1	214	0.184	-nan
1	216	0.185	-nan
1	218	0.186	-nan
1	220	0.187	-nan
1	222	0.188	-nan
1	224	0.189	-nan
1	226	0.19	-nan
1	228	0.191	-nan
1	230	0.192	-nan
1	232	0.193	-nan
1	234	0.194	-nan
1	236	0.195	-nan
1	238	0.196	-nan
1	240	0.197	-nan
1	242	0.198	-nan
1	244	0.199	-nan
2	877	1.36904	36
2	887	1.37448	72
2	897	1.37992	108
2	907	1.38536	144
2	917	1.3908	180
2	927	1.39624	216
2	955	1.40168	252
2	965	1.40712	288
2	975	1.41256	324
2	985	1.418	360
2	995	1.42344	396
2	1005	1.42888	432
2	1015	1.43432	468
2	1025	1.43976	504
2	1035	1.4452	540
2	1054	1.45064	576
2	1064	1.45608	612
2	1074	1.46152	648
2	1084	1.46696	684
2	1094	1.4724	720
2	1104	1.47784	756
2	1114	1.48328	792
2	1124	1.48872	828
2	1134	1.49416	864
2	1144	1.4996	900
2	1172	1.50504	936
2	1182	1.51048	972
2	1192	1.51592	1008
2	1202	1.52136	1044
2	1212	1.5268	1080
2	1222	1.53224	1116
2	1232	1.53768	1152
2	1242	1.54312	1188
2	1252	1.54856	1224
2	1279	1.554	1260
2	1299	1.55944	1296
2	1392	1.56488	1332
2	1406	1.57032	1368
2	1412	1.57528	1404
2	1418	1.57576	1440
2	1428	1.58072	1476
2	1434	1.5812	1512
2	1444	1.58616	1548
2	1450	1.58664	1584
2	1460	1.5916	1620
2	1466	1.59208	1656
2	1476	1.59704	1692
2	1482	1.59752	1728
2	1510	1.60248	1764
2	1516	1.60296	1800
2	1526	1.60792	1836
2	1532	1.6084	1872
2	1542	1.61336	1908
2	1548	1.61384	1944
2	1558	1.6188	1980
2	1564	1.61928	2016
2	1574	1.62424	2052
2	1580	1.62472	2088
2	1590	1.62968	2124
2	1596	1.63016	2160
2	1606	1.63512	2196
2	1612	1.6356	2232
2	1622	1.64056	2268
2	1628	1.64104	2304
2	1638	1.646	2340
2	1644	1.64648	2376
2	1663	1.65144	2412
2	1669	1.65192	2448
2	1679	1.65688	2484
2	1685	1.65736	2520
2	1695	1.66232	2556
2	1701	1.6628	2592
2	1711	1.66776	2628
2	1717	1.66824	2664
2	1727	1.6732	2700
2	1733	1.67368	2736
2	1743	1.67864	2772
2	1749	1.67912	2808
2	1759	1.68408	2844
2	1765	1.68456	2880
2	1775	1.68952	2916
2	1781	1.69	2952
2	1791	1.69496	2988
2	1797	1.69544	3024
2	1825	1.7004	3060
2	1831	1.70088	3096
2	1841	1.70584	3132
2	1847	1.70632	3168
2	1857	1.71128	3204
2	1863	1.71176	3240
2	1873	1.71672	3276
2	1879	1.7172	3312
2	1889	1.72216	3348
2	1895	1.72264	3384
2	1905	1.7276	3420
2	1911	1.72808	3456
2	1921	1.73304	3492
2	1927	1.73352	3528
2	1937	1.73848	3564
2	1943	1.73896	3600
2	1953	1.74392	3636
2	1959	1.7444	3672
2	1969	1.74936	3708
2	1975	1.74984	3744
2	1994	1.7548	3780
2	2000	1.75528	3816
2	2010	1.76024	3852
2	2016	1.76072	3888
2	2026	1.76568	3924
2	2032	1.76616	3960
2	2050	1.7716	3996
2	2064	1.77704	4032
2	2078	1.78248	4068
2	2092	1.78792	4104
2	2106	1.79336	4140
2	2120	1.7988	4176
2	2162	1.80424	4212
2	2183	1.80968	4248
2	2197	1.81512	4284
2	2211	1.82056	4320
2	2225	1.826	4356
2	2239	1.83144	4392
2	2253	1.83688	4428
2	2267	1.84232	4464
2	2285	1.84776	4500
2	2308	1.8532	4536
2	2322	1.85864	4572
2	2336	1.86408	4608
2	2350	1.86952	4644
2	2364	1.87496	4680
2	2378	1.8804	4716
2	2395	1.88584	4752
2	2529	1.89128	4788
2	2543	1.89672	4824
2	2575	1.90216	4860
2	2589	1.9076	4896
2	2649	1.93384	4932
2	2659	1.93928	4968
2	2669	1.94472	5004
2	2688	1.95016	5040
2	2698	1.9556	5076
2	2708	1.96104	5112
2	2718	1.96648	5148
2	2728	1.97192	5184
2	2738	1.97736	5220
2	2748	1.9828	5256
2	2758	1.98824	5292
2	2768	1.99368	5328
2	2778	1.99912	5364
2	2806	2.00456	5400
2	2816	2.01	5436
2	2826	2.01544	5472
2	2836	2.02088	5508
2	2846	2.02632	5544
2	2856	2.03176	5580
2	2866	2.0372	5616
2	2876	2.04264	5652
2	2886	2.04808	5688
2	2911	2.05352	5724
2	2928	2.05896	5760
2	2938	2.0644	5796
2	2948	2.06984	5832
2	2958	2.07528	5868
2	2968	2.08072	5904
2	2978	2.08616	5940
2	2988	2.0916	5976
2	2998	2.09704	6012
2	3026	2.10248	6048
2	3036	2.10792	6084
2	3046	2.11336	6120
2	3056	2.1188	6156
2	3066	2.12424	6192
2	3076	2.12968	6228
2	3086	2.13512	6264
2	3096	2.14056	6300
2	3106	2.146	6336
2	3125	2.15144	6372
2	3135	2.15688	6408
2	3145	2.16232	6444
2	3155	2.16776	6480
2	3165	2.1732	6516
2	3175	2.17864	6552
2	3185	2.18408	6588
2	3195	2.18952	6624
2	3205	2.19496	6660
2	3233	2.2004	6696
2	3243	2.20584	6732
2	3253	2.21128	6768
2	3263	2.21672	6804
2	3273	2.22216	6840
2	3283	2.2276	6876
2	3293	2.23304	6912
2	3303	2.23848	6948
2	3313	2.24392	6984
2	3323	2.24936	7020
2	3342	2.2548	7056
2	3410	2.29336	7092
2	3420	2.2988	7128
2	3450	2.30424	7164
2	3460	2.30968	7200
3	877	1.36904	36
3	887	1.37448	72
3	897	1.37992	108
3	907	1.38536	144
3	917	1.3908	180
3	927	1.39624	216
3	955	1.40168	252
3	965	1.40712	288
3	975	1.41256	324
3	985	1.418	360
3	995	1.42344	396
3	1005	1.42888	432
3	1015	1.43432	468
3	1025	1.43976	504
3	1035	1.4452	540
3	1054	1.45064	576
3	1064	1.45608	612
3	1074	1.46152	648
3	1084	1.46696	684
3	1094	1.4724	720
3	1104	1.47784	756
3	1114	1.48328	792
3	1124	1.48872	828
3	1134	1.49416	864
3	1144	1.4996	900
3	1172	1.50504	936
3	1182	1.51048	972
3	1192	1.51592	1008
3	1202	1.52136	1044
3	1212	1.5268	1080
3	1222	1.53224	1116
3	1232	1.53768	1152
3	1242	1.54312	1188
3	1252	1.54856	1224
3	1279	1.554	1260
3	1299	1.55944	1296
3	1392	1.56488	1332
3	1406	1.57032	1368
3	1412	1.57528	1404
3	1418	1.57576	1440
3	1428	1.58072	1476
3	1434	1.5812	1512
3	1444	1.58616	1548
3	1450	1.58664	1584
3	1460	1.5916	1620
3	1466	1.59208	1656
3	1476	1.59704	1692
3	1482	1.59752	1728
3	1510	1.60248	1764
3	1516	1.60296	1800
3	1526	1.60792	1836
3	1532	1.6084	1872
3	1542	1.61336	1908
3	1548	1.61384	1944
3	1558	1.6188	1980
3	1564	1.61928	2016
3	1574	1.62424	2052
3	1580	1.62472	2088
3	1590	1.62968	2124
3	1596	1.63016	2160
3	1606	1.63512	2196
3	1612	1.6356	2232
3	1622	1.64056	2268
3	1628	1.64104	2304
3	1638	1.646	2340
3	1644	1.64648	2376
3	1663	1.65144	2412
3	1669	1.65192	2448
3	1679	1.65688	2484
3	1685	1.65736	2520
3	1695	1.66232	2556
3	1701	1.6628	2592
3	1711	1.66776	2628
3	1717	1.66824	2664
3	1727	1.6732	2700
3	1733	1.67368	2736
3	1743	1.67864	2772
3	1749	1.67912	2808
3	1759	1.68408	2844
3	1765	1.68456	2880
3	1775	1.68952	2916
3	1781	1.69	2952
3	1791	1.69496	2988
3	1797	1.69544	3024
3	1825	1.7004	3060
3	1831	1.70088	3096
3	1841	1.70584	3132
3	1847	1.70632	3168
3	1857	1.71128	3204
3	1863	1.71176	3240
3	1873	1.71672	3276
3	1879	1.7172	3312
3	1889	1.72216	3348
3	1895	1.72264	3384
3	1905	1.7276	3420
3	1911	1.72808	3456
3	1921	1.73304	3492
3	1927	1.73352	3528
3	1937	1.73848	3564
3	1943	1.73896	3600
3	1953	1.74392	3636
3	1959	1.7444	3672
3	1969	1.74936	3708
3	1975	1.74984	3744
3	1994	1.7548	3780
3	2000	1.75528	3816
3	2010	1.76024	3852
3	2016	1.76072	3888
3	2026	1.76568	3924
3	2032	1.76616	3960
3	2050	1.7716	3996
3	2064	1.77704	4032
3	2078	1.78248	4068
3	2092	1.78792	4104
3	2106	1.79336	4140
3	2120	1.7988	4176
3	2162	1.80424	4212
3	2183	1.80968	4248
3	2197	1.81512	4284
3	2211	1.82056	4320
3	2225	1.826	4356
3	2239	1.83144	4392
3	2253	1.83688	4428
3	2267	1.84232	4464
3	2285	1.84776	4500
3	2308	1.8532	4536
3	2322	1.85864	4572
3	2336	1.86408	4608
3	2350	1.86952	4644
3	2364	1.87496	4680
3	2378	1.8804	4716
3	2395	1.88584	4752
3	2529	1.89128	4788
3	2543	1.89672	4824
3	2575	1.90216	4860
3	2589	1.9076	4896
3	2649	1.93384	4932
3	2659	1.93928	4968
3	2669	1.94472	5004
3	2688	1.95016	5040
3	2698	1.9556	5076
3	2708	1.96104	5112
3	2718	1.96648	5148
3	2728	1.97192	5184
3	2738	1.97736	5220
3	2748	1.9828	5256
3	2758	1.98824	5292
3	2768	1.99368	5328
3	2778	1.99912	5364
3	2806	2.00456	5400
3	2816	2.01	5436
3	2826	2.01544	5472
3	2836	2.02088	5508
3	2846	2.02632	5544
3	2856	2.03176	5580
3	2866	2.0372	5616
3	2876	2.04264	5652
3	2886	2.04808	5688
3	2911	2.05352	5724
3	2928	2.05896	5760
3	2938	2.0644	5796
3	2948	2.06984	5832
3	2958	2.07528	5868
3	2968	2.08072	5904
3	2978	2.08616	5940
3	2988	2.0916	5976
3	2998	2.09704	6012
3	3026	2.10248	6048
3	3036	2.10792	6084
3	3046	2.11336	6120
3	3056	2.1188	6156
3	3066	2.12424	6192
3	3076	2.12968	6228
3	3086	2.13512	6264
3	3096	2.14056	6300
3	3106	2.146	6336
3	3125	2.15144	6372
3	3135	2.15688	6408
3	3145	2.16232	6444
3	3155	2.16776	6480
3	3165	2.1732	6516
3	3175	2.17864	6552
3	3185	2.18408	6588
3	3195	2.18952	6624
3	3205	2.19496	6660
3	3233	2.2004	6696
3	3243	2.20584	6732
3	3253	2.21128	6768
3	3263	2.21672	6804
3	3273	2.22216	6840
3	3283	2.2276	6876
3	3293	2.23304	6912
3	3303	2.23848	6948
3	3313	2.24392	6984
3	3323	2.24936	7020
3	3342	2.2548	7056
3	3410	2.29336	7092
3	3420	2.2988	7128
3	3450	2.30424	7164
3	3460	2.30968	7200

