version 2
run A-1-20190731-18:51:32-21730
attr configname A
attr datetime 20190731-18:51:32
attr experiment A
attr inifile SimV2.ini
attr iterationvars $0=3
attr iterationvarsf 3-
attr measurement $0=3
attr network NetworkTormV2
attr processid 21730
attr repetition 0
attr replication #0
attr resultdir results
attr runnumber 1
attr seedset 1
param **.mobility.traceFile "\"paths/A.movements\""
param **.numNodes 3
param **.wirelessIfc.wirelessRange 25m
param **.bluetoothIfc.wirelessRange 25m
param **.numNodes 2
param **.application.usedRNG 1
param **.application.dataGenerationInterval 1s
param **.application.dataSizeInBytes 10
param **.application.ttl 999999s
param **application.destinationAddr "\"Wf:00:00:00:00:02\""
param **application.destinationBTAddr "\"Bt:00:00:00:00:02\""
param **application.nodesThatGen true
param **application.nodesGenMsg "\"0\""
param **.routingLayer "\"EpidemicRoutingLayer\""
param **.routing.maximumCacheSize 500byte
param **.routing.maximumHopCount 25
param **.routing.useTTL false
param **.neighboring.antiEntropyInterval 1s
param **.neighboring.maximumRandomBackoffDuration 1s
param **neighboring.usedRNG 2
param **.neighboring.GWAddr "\"02:00:00:00:00:03\""
param **.neighboring.sendWifiFirst true
param **.storage.maximumCacheSize 500byte
param **.wirelessIfc.wirelessRange 15m
param **.wirelessIfc.neighbourScanInterval 50ms
param **.wirelessIfc.bandwidthBitRate 100000bps
param **.wirelessIfc.wirelessHeaderSize 32byte
param **.wirelessIfc.minSSI -90
param **.bluetoothIfc.wirelessRange 15m
param **.bluetoothIfc.neighbourScanInterval 100ms
param **.bluetoothIfc.bandwidthBitRate 100000bps
param **.bluetoothIfc.wirelessHeaderSize 16byte
param **.bluetoothIfc.minSSI -90
param **.mobilityType "\"BonnMotionMobility\""
param **.mobility.traceFile "\"paths/Moves2.movements\""
param **.mobility.nodeId -1

vector 0 NetworkTormV2 neighbourhoodSize:vector ETV
attr source neighbourhoodSize
vector 1 NetworkTormV2 nonLikedDataBytesReceivableByAllNodesSum:vector ETV
attr source sum(nonLikedDataBytesReceivableByAllNodes)
vector 2 NetworkTormV2 deliveryRatio:vector ETV
attr source sum(totalDataBytesReceived)/sum(totalDataBytesReceivableByAllNodes)
vector 3 NetworkTormV2 dataBytesReceivedSum:vector ETV
attr source sum(dataBytesReceived)
vector 4 NetworkTormV2 totalBytesReceivedSum:vector ETV
attr source sum(totalBytesReceived)
vector 5 NetworkTormV2 likedDataBytesReceivableByAllNodesSum:vector ETV
attr source sum(likedDataBytesReceivableByAllNodes)
0	10	0.05	1
0	11	0.05	2
0	12	0.05	1
0	20	0.1	1
0	21	0.1	2
0	22	0.1	1
0	23	0.1	1
0	24	0.1	2
0	25	0.1	1
0	39	0.15	1
0	40	0.15	2
0	41	0.15	1
0	48	0.2	1
0	49	0.2	2
0	50	0.2	1
0	51	0.2	1
0	52	0.2	2
0	53	0.2	1
0	66	0.25	1
0	67	0.25	2
0	68	0.25	1
0	75	0.3	1
0	76	0.3	2
0	77	0.3	1
0	78	0.3	1
0	79	0.3	2
0	80	0.3	1
0	93	0.35	1
0	94	0.35	2
0	95	0.35	1
0	102	0.4	1
0	103	0.4	2
0	104	0.4	1
0	105	0.4	1
0	106	0.4	2
0	107	0.4	1
0	120	0.45	1
0	121	0.45	2
0	122	0.45	1
0	129	0.5	1
0	130	0.5	2
0	131	0.5	1
0	132	0.5	1
0	133	0.5	2
0	134	0.5	1
0	147	0.55	1
0	148	0.55	2
0	149	0.55	1
0	156	0.6	1
0	157	0.6	2
0	158	0.6	1
0	159	0.6	1
0	160	0.6	2
0	161	0.6	1
0	174	0.65	1
0	175	0.65	2
0	176	0.65	1
0	183	0.7	1
0	184	0.7	2
0	185	0.7	1
0	186	0.7	1
0	187	0.7	2
0	188	0.7	1
0	201	0.75	1
0	202	0.75	2
0	203	0.75	1
0	210	0.8	1
0	211	0.8	2
0	212	0.8	1
0	213	0.8	1
0	214	0.8	2
0	215	0.8	1
0	228	0.85	1
0	229	0.85	2
0	230	0.85	1
0	237	0.9	1
0	238	0.9	2
0	239	0.9	1
0	240	0.9	1
0	241	0.9	2
0	242	0.9	1
0	255	0.95	1
0	256	0.95	2
0	257	0.95	1
0	264	1	1
0	265	1	2
0	266	1	1
0	267	1	1
0	268	1	2
0	269	1	1
0	282	1.05	1
0	283	1.05	2
0	284	1.05	1
0	292	1.1	1
0	293	1.1	2
0	294	1.1	1
0	295	1.1	1
0	296	1.1	2
0	297	1.1	1
0	387	1.15	1
0	388	1.15	2
0	389	1.15	1
0	396	1.2	1
0	397	1.2	2
0	398	1.2	1
0	399	1.2	1
0	400	1.2	2
0	401	1.2	1
0	414	1.25	1
0	415	1.25	2
0	416	1.25	1
0	423	1.3	1
0	424	1.3	2
0	425	1.3	1
0	426	1.3	1
0	427	1.3	2
0	428	1.3	1
0	441	1.35	1
0	442	1.35	2
0	443	1.35	1
0	450	1.4	1
0	451	1.4	2
0	452	1.4	1
0	453	1.4	1
0	454	1.4	2
0	455	1.4	1
0	468	1.45	1
0	469	1.45	2
0	470	1.45	1
0	477	1.5	1
0	478	1.5	2
0	479	1.5	1
0	480	1.5	1
0	481	1.5	2
0	482	1.5	1
0	495	1.55	1
0	496	1.55	2
0	497	1.55	1
0	504	1.6	1
0	505	1.6	2
0	506	1.6	1
0	507	1.6	1
0	508	1.6	2
0	509	1.6	1
0	522	1.65	1
0	523	1.65	2
0	524	1.65	1
0	531	1.7	1
0	532	1.7	2
0	533	1.7	1
0	534	1.7	1
0	535	1.7	2
0	536	1.7	1
0	549	1.75	1
0	550	1.75	2
0	551	1.75	1
0	558	1.8	1
0	559	1.8	2
0	560	1.8	1
0	561	1.8	1
0	562	1.8	2
0	563	1.8	1
0	576	1.85	1
0	577	1.85	2
0	578	1.85	1
0	585	1.9	1
0	586	1.9	2
0	587	1.9	1
0	588	1.9	1
0	589	1.9	2
0	590	1.9	1
0	603	1.95	1
0	604	1.95	2
0	605	1.95	1
0	612	2	1
0	613	2	2
0	614	2	1
0	615	2	1
0	616	2	2
0	617	2	1
0	630	2.05	1
0	631	2.05	2
0	632	2.05	1
0	640	2.1	1
0	641	2.1	2
0	642	2.1	1
0	643	2.1	1
0	644	2.1	2
0	645	2.1	1
0	659	2.15	1
0	660	2.15	2
0	661	2.15	1
0	804	2.2	1
0	805	2.2	2
0	806	2.2	1
0	807	2.2	1
0	808	2.2	2
0	809	2.2	1
0	822	2.25	1
0	823	2.25	2
0	824	2.25	1
0	831	2.3	1
0	832	2.3	2
0	833	2.3	1
0	834	2.3	1
0	835	2.3	2
0	836	2.3	1
0	849	2.35	1
0	850	2.35	2
0	851	2.35	1
0	858	2.4	1
0	859	2.4	2
0	860	2.4	1
0	861	2.4	1
0	862	2.4	2
0	863	2.4	1
0	876	2.45	1
0	877	2.45	2
0	878	2.45	1
0	885	2.5	1
0	886	2.5	2
0	887	2.5	1
0	888	2.5	1
0	889	2.5	2
0	890	2.5	1
0	903	2.55	1
0	904	2.55	2
0	905	2.55	1
0	912	2.6	1
0	913	2.6	2
0	914	2.6	1
0	915	2.6	1
0	916	2.6	2
0	917	2.6	1
0	930	2.65	1
0	931	2.65	2
0	932	2.65	1
0	939	2.7	1
0	940	2.7	2
0	941	2.7	1
0	942	2.7	1
0	943	2.7	2
0	944	2.7	1
0	957	2.75	1
0	958	2.75	2
0	959	2.75	1
0	966	2.8	1
0	967	2.8	2
0	968	2.8	1
0	969	2.8	1
0	970	2.8	2
0	971	2.8	1
0	984	2.85	1
0	985	2.85	2
0	986	2.85	1
0	993	2.9	1
0	994	2.9	2
0	995	2.9	1
0	996	2.9	1
0	997	2.9	2
0	998	2.9	1
0	1011	2.95	1
0	1012	2.95	2
0	1013	2.95	1
0	1020	3	1
0	1021	3	2
0	1022	3	1
0	1023	3	1
0	1024	3	2
0	1025	3	1
0	1038	3.05	1
0	1039	3.05	2
0	1040	3.05	1
0	1048	3.1	1
0	1049	3.1	2
0	1050	3.1	1
0	1051	3.1	1
0	1052	3.1	2
0	1053	3.1	1
0	1067	3.15	1
0	1068	3.15	2
0	1069	3.15	1
0	1076	3.2	1
0	1077	3.2	2
0	1078	3.2	1
0	1079	3.2	1
0	1080	3.2	2
0	1081	3.2	1
0	1240	3.25	1
0	1241	3.25	2
0	1242	3.25	1
0	1275	3.3	1
0	1276	3.3	2
0	1277	3.3	1
0	1278	3.3	1
0	1279	3.3	2
0	1280	3.3	1
0	1293	3.35	1
0	1294	3.35	2
0	1295	3.35	1
0	1302	3.4	1
0	1303	3.4	2
0	1304	3.4	1
0	1305	3.4	1
0	1306	3.4	2
0	1307	3.4	1
0	1320	3.45	1
0	1321	3.45	2
0	1322	3.45	1
0	1329	3.5	1
0	1330	3.5	2
0	1331	3.5	1
0	1332	3.5	1
0	1333	3.5	2
0	1334	3.5	1
0	1347	3.55	1
0	1348	3.55	2
0	1349	3.55	1
0	1356	3.6	1
0	1357	3.6	2
0	1358	3.6	1
0	1359	3.6	1
0	1360	3.6	2
0	1361	3.6	1
0	1374	3.65	1
0	1375	3.65	2
0	1376	3.65	1
0	1383	3.7	1
0	1384	3.7	2
0	1385	3.7	1
0	1386	3.7	1
0	1387	3.7	2
0	1388	3.7	1
0	1401	3.75	1
0	1402	3.75	2
0	1403	3.75	1
0	1410	3.8	1
0	1411	3.8	2
0	1412	3.8	1
0	1413	3.8	1
0	1414	3.8	2
0	1415	3.8	1
0	1428	3.85	1
0	1429	3.85	2
0	1430	3.85	1
0	1437	3.9	1
0	1438	3.9	2
0	1439	3.9	1
0	1440	3.9	1
0	1441	3.9	2
0	1442	3.9	1
0	1455	3.95	1
0	1456	3.95	2
0	1457	3.95	1
0	1464	4	1
0	1465	4	2
0	1466	4	1
0	1467	4	1
0	1468	4	2
0	1469	4	1
0	1482	4.05	1
0	1483	4.05	2
0	1484	4.05	1
0	1492	4.1	1
0	1493	4.1	2
0	1494	4.1	1
0	1495	4.1	1
0	1496	4.1	2
0	1497	4.1	1
0	1511	4.15	1
0	1512	4.15	2
0	1513	4.15	1
0	1520	4.2	1
0	1521	4.2	2
0	1522	4.2	1
0	1523	4.2	1
0	1524	4.2	2
0	1525	4.2	1
0	1692	4.25	1
0	1693	4.25	2
0	1694	4.25	1
0	1755	4.3	1
0	1756	4.3	2
0	1757	4.3	1
0	1758	4.3	1
0	1759	4.3	2
0	1760	4.3	1
0	1773	4.35	1
0	1774	4.35	2
0	1775	4.35	1
0	1782	4.4	1
0	1783	4.4	2
0	1784	4.4	1
0	1785	4.4	1
0	1786	4.4	2
0	1787	4.4	1
0	1800	4.45	1
0	1801	4.45	2
0	1802	4.45	1
0	1809	4.5	1
0	1810	4.5	2
0	1811	4.5	1
0	1812	4.5	1
0	1813	4.5	2
0	1814	4.5	1
0	1827	4.55	1
0	1828	4.55	2
0	1829	4.55	1
0	1836	4.6	1
0	1837	4.6	2
0	1838	4.6	1
0	1839	4.6	1
0	1840	4.6	2
0	1841	4.6	1
0	1854	4.65	1
0	1855	4.65	2
0	1856	4.65	1
0	1863	4.7	1
0	1864	4.7	2
0	1865	4.7	1
0	1866	4.7	1
0	1867	4.7	2
0	1868	4.7	1
0	1881	4.75	1
0	1882	4.75	2
0	1883	4.75	1
0	1890	4.8	1
0	1891	4.8	2
0	1892	4.8	1
0	1893	4.8	1
0	1894	4.8	2
0	1895	4.8	1
0	1908	4.85	1
0	1909	4.85	2
0	1910	4.85	1
0	1917	4.9	1
0	1918	4.9	2
0	1919	4.9	1
0	1920	4.9	1
0	1921	4.9	2
0	1922	4.9	1
0	1935	4.95	1
0	1936	4.95	2
0	1937	4.95	1
0	1944	5	1
0	1945	5	2
0	1946	5	1
0	1947	5	1
0	1948	5	2
0	1949	5	1
0	1962	5.05	1
0	1963	5.05	2
0	1964	5.05	1
0	1972	5.1	1
0	1973	5.1	2
0	1974	5.1	1
0	1975	5.1	1
0	1976	5.1	2
0	1977	5.1	1
0	1991	5.15	1
0	1992	5.15	2
0	1993	5.15	1
0	2000	5.2	1
0	2001	5.2	2
0	2002	5.2	1
0	2003	5.2	1
0	2004	5.2	2
0	2005	5.2	1
0	2018	5.25	1
0	2019	5.25	2
0	2020	5.25	1
0	2181	5.3	1
0	2182	5.3	2
0	2183	5.3	1
0	2184	5.3	1
0	2185	5.3	2
0	2186	5.3	1
0	2289	5.35	1
0	2290	5.35	2
0	2291	5.35	1
0	2298	5.4	1
0	2299	5.4	2
0	2300	5.4	1
0	2301	5.4	1
0	2302	5.4	2
0	2303	5.4	1
0	2316	5.45	1
0	2317	5.45	2
0	2318	5.45	1
0	2325	5.5	1
0	2326	5.5	2
0	2327	5.5	1
0	2328	5.5	1
0	2329	5.5	2
0	2330	5.5	1
0	2343	5.55	1
0	2344	5.55	2
0	2345	5.55	1
0	2352	5.6	1
0	2353	5.6	2
0	2354	5.6	1
0	2355	5.6	1
0	2356	5.6	2
0	2357	5.6	1
0	2370	5.65	1
0	2371	5.65	2
0	2372	5.65	1
0	2379	5.7	1
0	2380	5.7	2
0	2381	5.7	1
0	2382	5.7	1
0	2383	5.7	2
0	2384	5.7	1
0	2397	5.75	1
0	2398	5.75	2
0	2399	5.75	1
0	2406	5.8	1
0	2407	5.8	2
0	2408	5.8	1
0	2409	5.8	1
0	2410	5.8	2
0	2411	5.8	1
0	2424	5.85	1
0	2425	5.85	2
0	2426	5.85	1
0	2433	5.9	1
0	2434	5.9	2
0	2435	5.9	1
0	2436	5.9	1
0	2437	5.9	2
0	2438	5.9	1
0	2451	5.95	1
0	2452	5.95	2
0	2453	5.95	1
0	2460	6	1
0	2461	6	2
0	2462	6	1
0	2463	6	1
0	2464	6	2
0	2465	6	1
0	2478	6.05	1
0	2479	6.05	2
0	2480	6.05	1
0	2488	6.1	1
0	2489	6.1	2
0	2490	6.1	1
0	2491	6.1	1
0	2492	6.1	2
0	2493	6.1	1
0	2507	6.15	1
0	2508	6.15	2
0	2509	6.15	1
0	2516	6.2	1
0	2517	6.2	2
0	2518	6.2	1
0	2519	6.2	1
0	2520	6.2	2
0	2521	6.2	1
0	2534	6.25	1
0	2535	6.25	2
0	2536	6.25	1
0	2543	6.3	1
0	2544	6.3	2
0	2545	6.3	1
0	2546	6.3	1
0	2547	6.3	2
0	2548	6.3	1
0	2717	6.35	1
0	2718	6.35	2
0	2719	6.35	1
0	2846	6.4	1
0	2847	6.4	2
0	2848	6.4	1
0	2849	6.4	1
0	2850	6.4	2
0	2851	6.4	1
0	2868	6.45	1
0	2869	6.45	2
0	2870	6.45	1
0	2877	6.5	1
0	2878	6.5	2
0	2879	6.5	1
0	2880	6.5	1
0	2881	6.5	2
0	2882	6.5	1
0	2895	6.55	1
0	2896	6.55	2
0	2897	6.55	1
0	2904	6.6	1
0	2905	6.6	2
0	2906	6.6	1
0	2907	6.6	1
0	2908	6.6	2
0	2909	6.6	1
0	2922	6.65	1
0	2923	6.65	2
0	2924	6.65	1
0	2931	6.7	1
0	2932	6.7	2
0	2933	6.7	1
0	2934	6.7	1
0	2935	6.7	2
0	2936	6.7	1
0	2949	6.75	1
0	2950	6.75	2
0	2951	6.75	1
0	2958	6.8	1
0	2959	6.8	2
0	2960	6.8	1
0	2961	6.8	1
0	2962	6.8	2
0	2963	6.8	1
0	2976	6.85	1
0	2977	6.85	2
0	2978	6.85	1
0	2985	6.9	1
0	2986	6.9	2
0	2987	6.9	1
0	2988	6.9	1
0	2989	6.9	2
0	2990	6.9	1
0	3003	6.95	1
0	3004	6.95	2
0	3005	6.95	1
0	3012	7	1
0	3013	7	2
0	3014	7	1
0	3015	7	1
0	3016	7	2
0	3017	7	1
0	3030	7.05	1
0	3031	7.05	2
0	3032	7.05	1
0	3040	7.1	1
0	3041	7.1	2
0	3042	7.1	1
0	3043	7.1	1
0	3044	7.1	2
0	3045	7.1	1
0	3059	7.15	1
0	3060	7.15	2
0	3061	7.15	1
0	3068	7.2	1
0	3069	7.2	2
0	3070	7.2	1
0	3071	7.2	1
0	3072	7.2	2
0	3073	7.2	1
0	3086	7.25	1
0	3087	7.25	2
0	3088	7.25	1
0	3095	7.3	1
0	3096	7.3	2
0	3097	7.3	1
0	3098	7.3	1
0	3099	7.3	2
0	3100	7.3	1
0	3113	7.35	1
0	3114	7.35	2
0	3115	7.35	1
0	3284	7.4	1
0	3285	7.4	2
0	3286	7.4	1
0	3287	7.4	1
0	3288	7.4	2
0	3289	7.4	1
0	3432	7.45	1
0	3433	7.45	2
0	3434	7.45	1
0	3465	7.5	1
0	3466	7.5	2
0	3467	7.5	1
0	3468	7.5	1
0	3469	7.5	2
0	3470	7.5	1
0	3483	7.55	1
0	3484	7.55	2
0	3485	7.55	1
0	3492	7.6	1
0	3493	7.6	2
0	3494	7.6	1
0	3495	7.6	1
0	3496	7.6	2
0	3497	7.6	1
0	3510	7.65	1
0	3511	7.65	2
0	3512	7.65	1
0	3519	7.7	1
0	3520	7.7	2
0	3521	7.7	1
0	3522	7.7	1
0	3523	7.7	2
0	3524	7.7	1
0	3537	7.75	1
0	3538	7.75	2
0	3539	7.75	1
0	3546	7.8	1
0	3547	7.8	2
0	3548	7.8	1
0	3549	7.8	1
0	3550	7.8	2
0	3551	7.8	1
0	3564	7.85	1
0	3565	7.85	2
0	3566	7.85	1
0	3573	7.9	1
0	3574	7.9	2
0	3575	7.9	1
0	3576	7.9	1
0	3577	7.9	2
0	3578	7.9	1
0	3591	7.95	1
0	3592	7.95	2
0	3593	7.95	1
0	3600	8	1
0	3601	8	2
0	3602	8	1
0	3603	8	1
0	3604	8	2
0	3605	8	1
0	3618	8.05	1
0	3619	8.05	2
0	3620	8.05	1
0	3628	8.1	1
0	3629	8.1	2
0	3630	8.1	1
0	3631	8.1	1
0	3632	8.1	2
0	3633	8.1	1
0	3647	8.15	1
0	3648	8.15	2
0	3649	8.15	1
0	3656	8.2	1
0	3657	8.2	2
0	3658	8.2	1
0	3659	8.2	1
0	3660	8.2	2
0	3661	8.2	1
0	3674	8.25	1
0	3675	8.25	2
0	3676	8.25	1
0	3683	8.3	1
0	3684	8.3	2
0	3685	8.3	1
0	3686	8.3	1
0	3687	8.3	2
0	3688	8.3	1
0	3701	8.35	1
0	3702	8.35	2
0	3703	8.35	1
0	3710	8.4	1
0	3711	8.4	2
0	3712	8.4	1
0	3713	8.4	1
0	3714	8.4	2
0	3715	8.4	1
0	3896	8.45	1
0	3897	8.45	2
0	3898	8.45	1
0	4039	8.5	1
0	4040	8.5	2
0	4041	8.5	1
0	4042	8.5	1
0	4043	8.5	2
0	4044	8.5	1
0	4107	8.55	1
0	4108	8.55	2
0	4109	8.55	1
0	4116	8.6	1
0	4117	8.6	2
0	4118	8.6	1
0	4119	8.6	1
0	4120	8.6	2
0	4121	8.6	1
0	4134	8.65	1
0	4135	8.65	2
0	4136	8.65	1
0	4143	8.7	1
0	4144	8.7	2
0	4145	8.7	1
0	4146	8.7	1
0	4147	8.7	2
0	4148	8.7	1
0	4161	8.75	1
0	4162	8.75	2
0	4163	8.75	1
0	4170	8.8	1
0	4171	8.8	2
0	4172	8.8	1
0	4173	8.8	1
0	4174	8.8	2
0	4175	8.8	1
0	4188	8.85	1
0	4189	8.85	2
0	4190	8.85	1
0	4197	8.9	1
0	4198	8.9	2
0	4199	8.9	1
0	4200	8.9	1
0	4201	8.9	2
0	4202	8.9	1
0	4215	8.95	1
0	4216	8.95	2
0	4217	8.95	1
0	4224	9	1
0	4225	9	2
0	4226	9	1
0	4227	9	1
0	4228	9	2
0	4229	9	1
0	4242	9.05	1
0	4243	9.05	2
0	4244	9.05	1
0	4252	9.1	1
0	4253	9.1	2
0	4254	9.1	1
0	4255	9.1	1
0	4256	9.1	2
0	4257	9.1	1
0	4271	9.15	1
0	4272	9.15	2
0	4273	9.15	1
0	4280	9.2	1
0	4281	9.2	2
0	4282	9.2	1
0	4283	9.2	1
0	4284	9.2	2
0	4285	9.2	1
0	4298	9.25	1
0	4299	9.25	2
0	4300	9.25	1
0	4307	9.3	1
0	4308	9.3	2
0	4309	9.3	1
0	4310	9.3	1
0	4311	9.3	2
0	4312	9.3	1
0	4325	9.35	1
0	4326	9.35	2
0	4327	9.35	1
0	4334	9.4	1
0	4335	9.4	2
0	4336	9.4	1
0	4337	9.4	1
0	4338	9.4	2
0	4339	9.4	1
0	4352	9.45	1
0	4353	9.45	2
0	4354	9.45	1
0	4535	9.5	1
0	4536	9.5	2
0	4537	9.5	1
0	4538	9.5	1
0	4539	9.5	2
0	4540	9.5	1
0	4693	9.55	1
0	4694	9.55	2
0	4695	9.55	1
0	4776	9.6	1
0	4777	9.6	2
0	4778	9.6	1
0	4779	9.6	1
0	4780	9.6	2
0	4781	9.6	1
0	4794	9.65	1
0	4795	9.65	2
0	4796	9.65	1
0	4803	9.7	1
0	4804	9.7	2
0	4805	9.7	1
0	4806	9.7	1
0	4807	9.7	2
0	4808	9.7	1
0	4821	9.75	1
0	4822	9.75	2
0	4823	9.75	1
0	4830	9.8	1
0	4831	9.8	2
0	4832	9.8	1
0	4833	9.8	1
0	4834	9.8	2
0	4835	9.8	1
0	4848	9.85	1
0	4849	9.85	2
0	4850	9.85	1
0	4857	9.9	1
0	4858	9.9	2
0	4859	9.9	1
0	4860	9.9	1
0	4861	9.9	2
0	4862	9.9	1
0	4875	9.95	1
0	4876	9.95	2
0	4877	9.95	1
0	4884	10	1
0	4885	10	2
0	4886	10	1
0	4887	10	1
0	4888	10	2
0	4889	10	1
0	4902	10.05	1
0	4903	10.05	2
0	4904	10.05	1
0	4912	10.1	1
0	4913	10.1	2
0	4914	10.1	1
0	4915	10.1	1
0	4916	10.1	2
0	4917	10.1	1
0	4931	10.15	1
0	4932	10.15	2
0	4933	10.15	1
0	4940	10.2	1
0	4941	10.2	2
0	4942	10.2	1
0	4943	10.2	1
0	4944	10.2	2
0	4945	10.2	1
0	4958	10.25	1
0	4959	10.25	2
0	4960	10.25	1
0	4967	10.3	1
0	4968	10.3	2
0	4969	10.3	1
0	4970	10.3	1
0	4971	10.3	2
0	4972	10.3	1
0	4985	10.35	1
0	4986	10.35	2
0	4987	10.35	1
0	4994	10.4	1
0	4995	10.4	2
0	4996	10.4	1
0	4997	10.4	1
0	4998	10.4	2
0	4999	10.4	1
0	5012	10.45	1
0	5013	10.45	2
0	5014	10.45	1
0	5021	10.5	1
0	5022	10.5	2
0	5023	10.5	1
0	5024	10.5	1
0	5025	10.5	2
0	5026	10.5	1
0	5219	10.55	1
0	5220	10.55	2
0	5221	10.55	1
0	5374	10.6	1
0	5375	10.6	2
0	5376	10.6	1
0	5377	10.6	1
0	5378	10.6	2
0	5379	10.6	1
0	5478	10.65	1
0	5479	10.65	2
0	5480	10.65	1
0	5499	10.7	1
0	5500	10.7	2
0	5501	10.7	1
0	5502	10.7	1
0	5503	10.7	2
0	5504	10.7	1
0	5517	10.75	1
0	5518	10.75	2
0	5519	10.75	1
0	5526	10.8	1
0	5527	10.8	2
0	5528	10.8	1
0	5529	10.8	1
0	5530	10.8	2
0	5531	10.8	1
0	5544	10.85	1
0	5545	10.85	2
0	5546	10.85	1
0	5553	10.9	1
0	5554	10.9	2
0	5555	10.9	1
0	5556	10.9	1
0	5557	10.9	2
0	5558	10.9	1
0	5571	10.95	1
0	5572	10.95	2
0	5573	10.95	1
0	5580	11	1
0	5581	11	2
0	5582	11	1
0	5583	11	1
0	5584	11	2
0	5585	11	1
0	5598	11.05	1
0	5599	11.05	2
0	5600	11.05	1
0	5608	11.1	1
0	5609	11.1	2
0	5610	11.1	1
0	5611	11.1	1
0	5612	11.1	2
0	5613	11.1	1
0	5627	11.15	1
0	5628	11.15	2
0	5629	11.15	1
0	5636	11.2	1
0	5637	11.2	2
0	5638	11.2	1
0	5639	11.2	1
0	5640	11.2	2
0	5641	11.2	1
0	5654	11.25	1
0	5655	11.25	2
0	5656	11.25	1
0	5663	11.3	1
0	5664	11.3	2
0	5665	11.3	1
0	5666	11.3	1
0	5667	11.3	2
0	5668	11.3	1
0	5681	11.35	1
0	5682	11.35	2
0	5683	11.35	1
0	5690	11.4	1
0	5691	11.4	2
0	5692	11.4	1
0	5693	11.4	1
0	5694	11.4	2
0	5695	11.4	1
0	5708	11.45	1
0	5709	11.45	2
0	5710	11.45	1
0	5717	11.5	1
0	5718	11.5	2
0	5719	11.5	1
0	5720	11.5	1
0	5721	11.5	2
0	5722	11.5	1
0	5735	11.55	1
0	5736	11.55	2
0	5737	11.55	1
0	5930	11.6	1
0	5931	11.6	2
0	5932	11.6	1
0	5933	11.6	1
0	5934	11.6	2
0	5935	11.6	1
0	6088	11.65	1
0	6089	11.65	2
0	6090	11.65	1
0	6199	11.7	1
0	6200	11.7	2
0	6201	11.7	1
0	6202	11.7	1
0	6203	11.7	2
0	6204	11.7	1
0	6249	11.75	1
0	6250	11.75	2
0	6251	11.75	1
0	6258	11.8	1
0	6259	11.8	2
0	6260	11.8	1
0	6261	11.8	1
0	6262	11.8	2
0	6263	11.8	1
0	6276	11.85	1
0	6277	11.85	2
0	6278	11.85	1
0	6285	11.9	1
0	6286	11.9	2
0	6287	11.9	1
0	6288	11.9	1
0	6289	11.9	2
0	6290	11.9	1
0	6303	11.95	1
0	6304	11.95	2
0	6305	11.95	1
0	6312	12	1
0	6313	12	2
0	6314	12	1
0	6315	12	1
0	6316	12	2
0	6317	12	1
0	6330	12.05	1
0	6331	12.05	2
0	6332	12.05	1
0	6340	12.1	1
0	6341	12.1	2
0	6342	12.1	1
0	6343	12.1	1
0	6344	12.1	2
0	6345	12.1	1
0	6359	12.15	1
0	6360	12.15	2
0	6361	12.15	1
0	6368	12.2	1
0	6369	12.2	2
0	6370	12.2	1
0	6371	12.2	1
0	6372	12.2	2
0	6373	12.2	1
0	6386	12.25	1
0	6387	12.25	2
0	6388	12.25	1
0	6395	12.3	1
0	6396	12.3	2
0	6397	12.3	1
0	6398	12.3	1
0	6399	12.3	2
0	6400	12.3	1
0	6413	12.35	1
0	6414	12.35	2
0	6415	12.35	1
0	6422	12.4	1
0	6423	12.4	2
0	6424	12.4	1
0	6425	12.4	1
0	6426	12.4	2
0	6427	12.4	1
0	6440	12.45	1
0	6441	12.45	2
0	6442	12.45	1
0	6449	12.5	1
0	6450	12.5	2
0	6451	12.5	1
0	6452	12.5	1
0	6453	12.5	2
0	6454	12.5	1
0	6467	12.55	1
0	6468	12.55	2
0	6469	12.55	1
0	6476	12.6	1
0	6477	12.6	2
0	6478	12.6	1
0	6479	12.6	1
0	6480	12.6	2
0	6481	12.6	1
0	6686	12.65	1
0	6687	12.65	2
0	6688	12.65	1
0	6829	12.7	1
0	6830	12.7	2
0	6831	12.7	1
0	6832	12.7	1
0	6833	12.7	2
0	6834	12.7	1
0	6961	12.75	1
0	6962	12.75	2
0	6963	12.75	1
0	7026	12.8	1
0	7027	12.8	2
0	7028	12.8	1
0	7029	12.8	1
0	7030	12.8	2
0	7031	12.8	1
0	7044	12.85	1
0	7045	12.85	2
0	7046	12.85	1
0	7053	12.9	1
0	7054	12.9	2
0	7055	12.9	1
0	7056	12.9	1
0	7057	12.9	2
0	7058	12.9	1
0	7071	12.95	1
0	7072	12.95	2
0	7073	12.95	1
0	7080	13	1
0	7081	13	2
0	7082	13	1
0	7083	13	1
0	7084	13	2
0	7085	13	1
0	7098	13.05	1
0	7099	13.05	2
0	7100	13.05	1
0	7108	13.1	1
0	7109	13.1	2
0	7110	13.1	1
0	7111	13.1	1
0	7112	13.1	2
0	7113	13.1	1
0	7127	13.15	1
0	7128	13.15	2
0	7129	13.15	1
0	7136	13.2	1
0	7137	13.2	2
0	7138	13.2	1
0	7139	13.2	1
0	7140	13.2	2
0	7141	13.2	1
0	7154	13.25	1
0	7155	13.25	2
0	7156	13.25	1
0	7163	13.3	1
0	7164	13.3	2
0	7165	13.3	1
0	7166	13.3	1
0	7167	13.3	2
0	7168	13.3	1
0	7181	13.35	1
0	7182	13.35	2
0	7183	13.35	1
0	7190	13.4	1
0	7191	13.4	2
0	7192	13.4	1
0	7193	13.4	1
0	7194	13.4	2
0	7195	13.4	1
0	7208	13.45	1
0	7209	13.45	2
0	7210	13.45	1
0	7217	13.5	1
0	7218	13.5	2
0	7219	13.5	1
0	7220	13.5	1
0	7221	13.5	2
0	7222	13.5	1
0	7235	13.55	1
0	7236	13.55	2
0	7237	13.55	1
0	7244	13.6	1
0	7245	13.6	2
0	7246	13.6	1
0	7247	13.6	1
0	7248	13.6	2
0	7249	13.6	1
0	7262	13.65	1
0	7263	13.65	2
0	7264	13.65	1
0	7469	13.7	1
0	7470	13.7	2
0	7471	13.7	1
0	7472	13.7	1
0	7473	13.7	2
0	7474	13.7	1
0	7611	13.75	1
0	7612	13.75	2
0	7613	13.75	1
0	7750	13.8	1
0	7751	13.8	2
0	7752	13.8	1
0	7753	13.8	1
0	7754	13.8	2
0	7755	13.8	1
0	7848	13.85	1
0	7849	13.85	2
0	7850	13.85	1
0	7857	13.9	1
0	7858	13.9	2
0	7859	13.9	1
0	7860	13.9	1
0	7861	13.9	2
0	7862	13.9	1
0	7875	13.95	1
0	7876	13.95	2
0	7877	13.95	1
0	7884	14	1
0	7885	14	2
0	7886	14	1
0	7887	14	1
0	7888	14	2
0	7889	14	1
0	7902	14.05	1
0	7903	14.05	2
0	7904	14.05	1
0	7912	14.1	1
0	7913	14.1	2
0	7914	14.1	1
0	7915	14.1	1
0	7916	14.1	2
0	7917	14.1	1
0	7931	14.15	1
0	7932	14.15	2
0	7933	14.15	1
0	7940	14.2	1
0	7941	14.2	2
0	7942	14.2	1
0	7943	14.2	1
0	7944	14.2	2
0	7945	14.2	1
0	7958	14.25	1
0	7959	14.25	2
0	7960	14.25	1
0	7967	14.3	1
0	7968	14.3	2
0	7969	14.3	1
0	7970	14.3	1
0	7971	14.3	2
0	7972	14.3	1
0	7985	14.35	1
0	7986	14.35	2
0	7987	14.35	1
0	7994	14.4	1
0	7995	14.4	2
0	7996	14.4	1
0	7997	14.4	1
0	7998	14.4	2
0	7999	14.4	1
0	8012	14.45	1
0	8013	14.45	2
0	8014	14.45	1
0	8021	14.5	1
0	8022	14.5	2
0	8023	14.5	1
0	8024	14.5	1
0	8025	14.5	2
0	8026	14.5	1
0	8039	14.55	1
0	8040	14.55	2
0	8041	14.55	1
0	8048	14.6	1
0	8049	14.6	2
0	8050	14.6	1
0	8051	14.6	1
0	8052	14.6	2
0	8053	14.6	1
0	8066	14.65	1
0	8067	14.65	2
0	8068	14.65	1
0	8075	14.7	1
0	8076	14.7	2
0	8077	14.7	1
0	8078	14.7	1
0	8079	14.7	2
0	8080	14.7	1
0	8297	14.75	1
0	8298	14.75	2
0	8299	14.75	1
0	8424	14.8	1
0	8425	14.8	2
0	8426	14.8	1
0	8427	14.8	1
0	8428	14.8	2
0	8429	14.8	1
0	8584	14.85	1
0	8585	14.85	2
0	8586	14.85	1
0	8681	14.9	1
0	8682	14.9	2
0	8683	14.9	1
0	8684	14.9	1
0	8685	14.9	2
0	8686	14.9	1
0	8715	14.95	1
0	8716	14.95	2
0	8717	14.95	1
0	8724	15	1
0	8725	15	2
0	8726	15	1
0	8727	15	1
0	8728	15	2
0	8729	15	1
1	19	0.1	30
1	291	1.1	60
1	639	2.1	90
1	1047	3.1	120
1	1971	5.1	150
1	3039	7.1	180
1	4251	9.1	210
1	4911	10.1	240
1	5607	11.1	270
1	6339	12.1	300
1	7107	13.1	330
1	7911	14.1	360
2	19	0.1	-nan
2	291	1.1	-nan
2	639	2.1	-nan
2	1047	3.1	-nan
2	1491	4.1	-nan
2	1971	5.1	-nan
2	2487	6.1	-nan
2	3039	7.1	-nan
2	3627	8.1	-nan
2	4251	9.1	-nan
2	4911	10.1	-nan
2	5607	11.1	-nan
2	6339	12.1	-nan
2	7107	13.1	-nan
2	7911	14.1	-nan
3	370	1.11904	36
3	380	1.12448	72
3	737	2.16904	108
3	743	2.17368	144
3	749	2.17448	180
3	755	2.17912	216
3	761	2.17992	252
3	771	2.18456	288
3	785	2.19	324
3	1169	3.21904	360
3	1175	3.22368	396
3	1181	3.22448	432
3	1187	3.22912	468
3	1193	3.22992	504
3	1199	3.23456	540
3	1205	3.23536	576
3	1215	3.24	612
3	1233	3.24544	648
3	1252	3.25088	684
3	1619	4.21904	720
3	1625	4.22368	756
3	1631	4.22448	792
3	1637	4.22912	828
3	1643	4.22992	864
3	1649	4.23456	900
3	1655	4.23536	936
3	1661	4.24	972
3	1667	4.2408	1008
3	1677	4.24544	1044
3	1704	4.25088	1080
3	1718	4.25632	1116
3	1728	4.26176	1152
3	2114	5.26904	1188
3	2120	5.27368	1224
3	2126	5.27448	1260
3	2132	5.27912	1296
3	2138	5.27992	1332
3	2144	5.28456	1368
3	2150	5.28536	1404
3	2156	5.29	1440
3	2162	5.2908	1476
3	2168	5.29544	1512
3	2174	5.29624	1548
3	2202	5.30088	1584
3	2220	5.30632	1620
3	2238	5.31176	1656
3	2248	5.3172	1692
3	2258	5.32264	1728
3	2654	6.31904	1764
3	2660	6.32368	1800
3	2666	6.32448	1836
3	2672	6.32912	1872
3	2678	6.32992	1908
3	2684	6.33456	1944
3	2690	6.33536	1980
3	2696	6.34	2016
3	2702	6.3408	2052
3	2708	6.34544	2088
3	2714	6.34624	2124
3	2729	6.35088	2160
3	2735	6.35168	2196
3	2745	6.35632	2232
3	2763	6.36176	2268
3	2785	6.3672	2304
3	2795	6.37264	2340
3	2805	6.37808	2376
3	2815	6.38352	2412
3	3221	7.36904	2448
3	3227	7.37368	2484
3	3233	7.37448	2520
3	3239	7.37912	2556
3	3245	7.37992	2592
3	3251	7.38456	2628
3	3257	7.38536	2664
3	3263	7.39	2700
3	3269	7.3908	2736
3	3275	7.39544	2772
3	3281	7.39624	2808
3	3305	7.40088	2844
3	3311	7.40168	2880
3	3317	7.40632	2916
3	3323	7.40712	2952
3	3333	7.41176	2988
3	3351	7.4172	3024
3	3373	7.42264	3060
3	3387	7.42808	3096
3	3397	7.43352	3132
3	3407	7.43896	3168
3	3417	7.4444	3204
3	3833	8.41904	3240
3	3839	8.42368	3276
3	3845	8.42448	3312
3	3851	8.42912	3348
3	3857	8.42992	3384
3	3863	8.43456	3420
3	3869	8.43536	3456
3	3875	8.44	3492
3	3881	8.4408	3528
3	3887	8.44544	3564
3	3893	8.44624	3600
3	3908	8.45088	3636
3	3914	8.45168	3672
3	3920	8.45632	3708
3	3926	8.45712	3744
3	3932	8.46176	3780
3	3938	8.46256	3816
3	3948	8.4672	3852
3	3966	8.47264	3888
3	3988	8.47808	3924
3	4006	8.48352	3960
3	4016	8.48896	3996
3	4026	8.4944	4032
3	4036	8.49984	4068
3	4064	8.50528	4104
3	4472	9.46904	4140
3	4478	9.47368	4176
3	4484	9.47448	4212
3	4490	9.47912	4248
3	4496	9.47992	4284
3	4502	9.48456	4320
3	4508	9.48536	4356
3	4514	9.49	4392
3	4520	9.4908	4428
3	4526	9.49544	4464
3	4532	9.49624	4500
3	4556	9.50088	4536
3	4562	9.50168	4572
3	4568	9.50632	4608
3	4574	9.50712	4644
3	4580	9.51176	4680
3	4586	9.51256	4716
3	4592	9.5172	4752
3	4598	9.518	4788
3	4608	9.52264	4824
3	4626	9.52808	4860
3	4648	9.53352	4896
3	4666	9.53896	4932
3	4680	9.5444	4968
3	4690	9.54984	5004
3	4709	9.55528	5040
3	4719	9.56072	5076
3	4729	9.56616	5112
3	5156	10.51904	5148
3	5162	10.52368	5184
3	5168	10.52448	5220
3	5174	10.52912	5256
3	5180	10.52992	5292
3	5186	10.53456	5328
3	5192	10.53536	5364
3	5198	10.54	5400
3	5204	10.5408	5436
3	5210	10.54544	5472
3	5216	10.54624	5508
3	5231	10.55088	5544
3	5237	10.55168	5580
3	5243	10.55632	5616
3	5249	10.55712	5652
3	5255	10.56176	5688
3	5261	10.56256	5724
3	5267	10.5672	5760
3	5273	10.568	5796
3	5279	10.57264	5832
3	5285	10.57344	5868
3	5295	10.57808	5904
3	5313	10.58352	5940
3	5335	10.58896	5976
3	5353	10.5944	6012
3	5371	10.59984	6048
3	5399	10.60528	6084
3	5409	10.61072	6120
3	5419	10.61616	6156
3	5429	10.6216	6192
3	5439	10.62704	6228
3	5867	11.56904	6264
3	5873	11.57368	6300
3	5879	11.57448	6336
3	5885	11.57912	6372
3	5891	11.57992	6408
3	5897	11.58456	6444
3	5903	11.58536	6480
3	5909	11.59	6516
3	5915	11.5908	6552
3	5921	11.59544	6588
3	5927	11.59624	6624
3	5951	11.60088	6660
3	5957	11.60168	6696
3	5963	11.60632	6732
3	5969	11.60712	6768
3	5975	11.61176	6804
3	5981	11.61256	6840
3	5987	11.6172	6876
3	5993	11.618	6912
3	5999	11.62264	6948
3	6005	11.62344	6984
3	6011	11.62808	7020
3	6017	11.62888	7056
3	6027	11.63352	7092
3	6045	11.63896	7128
3	6067	11.6444	7164
3	6085	11.64984	7200
3	6112	11.65528	7236
3	6126	11.66072	7272
3	6136	11.66616	7308
3	6146	11.6716	7344
3	6156	11.67704	7380
3	6166	11.68248	7416
3	6176	11.68792	7452
3	6623	12.61904	7488
3	6629	12.62368	7524
3	6635	12.62448	7560
3	6641	12.62912	7596
3	6647	12.62992	7632
3	6653	12.63456	7668
3	6659	12.63536	7704
3	6665	12.64	7740
3	6671	12.6408	7776
3	6677	12.64544	7812
3	6683	12.64624	7848
3	6698	12.65088	7884
3	6704	12.65168	7920
3	6710	12.65632	7956
3	6716	12.65712	7992
3	6722	12.66176	8028
3	6728	12.66256	8064
3	6734	12.6672	8100
3	6740	12.668	8136
3	6746	12.67264	8172
3	6752	12.67344	8208
3	6758	12.67808	8244
3	6764	12.67888	8280
3	6770	12.68352	8316
3	6776	12.68432	8352
3	6786	12.68896	8388
3	6804	12.6944	8424
3	6826	12.69984	8460
3	6862	12.70528	8496
3	6880	12.71072	8532
3	6898	12.71616	8568
3	6908	12.7216	8604
3	6918	12.72704	8640
3	6928	12.73248	8676
3	6938	12.73792	8712
3	6948	12.74336	8748
3	6958	12.7488	8784
3	7406	13.66904	8820
3	7412	13.67368	8856
3	7418	13.67448	8892
3	7424	13.67912	8928
3	7430	13.67992	8964
3	7436	13.68456	9000
3	7442	13.68536	9036
3	7448	13.69	9072
3	7454	13.6908	9108
3	7460	13.69544	9144
3	7466	13.69624	9180
3	7490	13.70088	9216
3	7496	13.70168	9252
3	7502	13.70632	9288
3	7508	13.70712	9324
3	7514	13.71176	9360
3	7520	13.71256	9396
3	7526	13.7172	9432
3	7532	13.718	9468
3	7538	13.72264	9504
3	7544	13.72344	9540
3	7550	13.72808	9576
3	7556	13.72888	9612
3	7562	13.73352	9648
3	7568	13.73432	9684
3	7574	13.73896	9720
3	7580	13.73976	9756
3	7590	13.7444	9792
3	7608	13.74984	9828
3	7639	13.75528	9864
3	7657	13.76072	9900
3	7675	13.76616	9936
3	7693	13.7716	9972
3	7707	13.77704	10008
3	7717	13.78248	10044
3	7727	13.78792	10080
3	7737	13.79336	10116
3	7747	13.7988	10152
3	7775	13.80424	10188
3	7785	13.80968	10224
3	8234	14.71904	10260
3	8240	14.72368	10296
3	8246	14.72448	10332
3	8252	14.72912	10368
3	8258	14.72992	10404
3	8264	14.73456	10440
3	8270	14.73536	10476
3	8276	14.74	10512
3	8282	14.7408	10548
3	8288	14.74544	10584
3	8294	14.74624	10620
3	8309	14.75088	10656
3	8315	14.75168	10692
3	8321	14.75632	10728
3	8327	14.75712	10764
3	8333	14.76176	10800
3	8339	14.76256	10836
3	8345	14.7672	10872
3	8351	14.768	10908
3	8357	14.77264	10944
3	8363	14.77344	10980
3	8369	14.77808	11016
3	8375	14.77888	11052
3	8381	14.78352	11088
3	8387	14.78432	11124
3	8393	14.78896	11160
3	8399	14.78976	11196
3	8405	14.7944	11232
3	8411	14.7952	11268
3	8421	14.79984	11304
3	8457	14.80528	11340
3	8479	14.81072	11376
3	8497	14.81616	11412
3	8515	14.8216	11448
3	8533	14.82704	11484
3	8551	14.83248	11520
3	8561	14.83792	11556
3	8571	14.84336	11592
3	8581	14.8488	11628
3	8600	14.85424	11664
3	8610	14.85968	11700
3	8620	14.86512	11736
3	8630	14.87056	11772
4	370	1.11904	36
4	380	1.12448	72
4	737	2.16904	108
4	743	2.17368	144
4	749	2.17448	180
4	755	2.17912	216
4	761	2.17992	252
4	771	2.18456	288
4	785	2.19	324
4	1169	3.21904	360
4	1175	3.22368	396
4	1181	3.22448	432
4	1187	3.22912	468
4	1193	3.22992	504
4	1199	3.23456	540
4	1205	3.23536	576
4	1215	3.24	612
4	1233	3.24544	648
4	1252	3.25088	684
4	1619	4.21904	720
4	1625	4.22368	756
4	1631	4.22448	792
4	1637	4.22912	828
4	1643	4.22992	864
4	1649	4.23456	900
4	1655	4.23536	936
4	1661	4.24	972
4	1667	4.2408	1008
4	1677	4.24544	1044
4	1704	4.25088	1080
4	1718	4.25632	1116
4	1728	4.26176	1152
4	2114	5.26904	1188
4	2120	5.27368	1224
4	2126	5.27448	1260
4	2132	5.27912	1296
4	2138	5.27992	1332
4	2144	5.28456	1368
4	2150	5.28536	1404
4	2156	5.29	1440
4	2162	5.2908	1476
4	2168	5.29544	1512
4	2174	5.29624	1548
4	2202	5.30088	1584
4	2220	5.30632	1620
4	2238	5.31176	1656
4	2248	5.3172	1692
4	2258	5.32264	1728
4	2654	6.31904	1764
4	2660	6.32368	1800
4	2666	6.32448	1836
4	2672	6.32912	1872
4	2678	6.32992	1908
4	2684	6.33456	1944
4	2690	6.33536	1980
4	2696	6.34	2016
4	2702	6.3408	2052
4	2708	6.34544	2088
4	2714	6.34624	2124
4	2729	6.35088	2160
4	2735	6.35168	2196
4	2745	6.35632	2232
4	2763	6.36176	2268
4	2785	6.3672	2304
4	2795	6.37264	2340
4	2805	6.37808	2376
4	2815	6.38352	2412
4	3221	7.36904	2448
4	3227	7.37368	2484
4	3233	7.37448	2520
4	3239	7.37912	2556
4	3245	7.37992	2592
4	3251	7.38456	2628
4	3257	7.38536	2664
4	3263	7.39	2700
4	3269	7.3908	2736
4	3275	7.39544	2772
4	3281	7.39624	2808
4	3305	7.40088	2844
4	3311	7.40168	2880
4	3317	7.40632	2916
4	3323	7.40712	2952
4	3333	7.41176	2988
4	3351	7.4172	3024
4	3373	7.42264	3060
4	3387	7.42808	3096
4	3397	7.43352	3132
4	3407	7.43896	3168
4	3417	7.4444	3204
4	3833	8.41904	3240
4	3839	8.42368	3276
4	3845	8.42448	3312
4	3851	8.42912	3348
4	3857	8.42992	3384
4	3863	8.43456	3420
4	3869	8.43536	3456
4	3875	8.44	3492
4	3881	8.4408	3528
4	3887	8.44544	3564
4	3893	8.44624	3600
4	3908	8.45088	3636
4	3914	8.45168	3672
4	3920	8.45632	3708
4	3926	8.45712	3744
4	3932	8.46176	3780
4	3938	8.46256	3816
4	3948	8.4672	3852
4	3966	8.47264	3888
4	3988	8.47808	3924
4	4006	8.48352	3960
4	4016	8.48896	3996
4	4026	8.4944	4032
4	4036	8.49984	4068
4	4064	8.50528	4104
4	4472	9.46904	4140
4	4478	9.47368	4176
4	4484	9.47448	4212
4	4490	9.47912	4248
4	4496	9.47992	4284
4	4502	9.48456	4320
4	4508	9.48536	4356
4	4514	9.49	4392
4	4520	9.4908	4428
4	4526	9.49544	4464
4	4532	9.49624	4500
4	4556	9.50088	4536
4	4562	9.50168	4572
4	4568	9.50632	4608
4	4574	9.50712	4644
4	4580	9.51176	4680
4	4586	9.51256	4716
4	4592	9.5172	4752
4	4598	9.518	4788
4	4608	9.52264	4824
4	4626	9.52808	4860
4	4648	9.53352	4896
4	4666	9.53896	4932
4	4680	9.5444	4968
4	4690	9.54984	5004
4	4709	9.55528	5040
4	4719	9.56072	5076
4	4729	9.56616	5112
4	5156	10.51904	5148
4	5162	10.52368	5184
4	5168	10.52448	5220
4	5174	10.52912	5256
4	5180	10.52992	5292
4	5186	10.53456	5328
4	5192	10.53536	5364
4	5198	10.54	5400
4	5204	10.5408	5436
4	5210	10.54544	5472
4	5216	10.54624	5508
4	5231	10.55088	5544
4	5237	10.55168	5580
4	5243	10.55632	5616
4	5249	10.55712	5652
4	5255	10.56176	5688
4	5261	10.56256	5724
4	5267	10.5672	5760
4	5273	10.568	5796
4	5279	10.57264	5832
4	5285	10.57344	5868
4	5295	10.57808	5904
4	5313	10.58352	5940
4	5335	10.58896	5976
4	5353	10.5944	6012
4	5371	10.59984	6048
4	5399	10.60528	6084
4	5409	10.61072	6120
4	5419	10.61616	6156
4	5429	10.6216	6192
4	5439	10.62704	6228
4	5867	11.56904	6264
4	5873	11.57368	6300
4	5879	11.57448	6336
4	5885	11.57912	6372
4	5891	11.57992	6408
4	5897	11.58456	6444
4	5903	11.58536	6480
4	5909	11.59	6516
4	5915	11.5908	6552
4	5921	11.59544	6588
4	5927	11.59624	6624
4	5951	11.60088	6660
4	5957	11.60168	6696
4	5963	11.60632	6732
4	5969	11.60712	6768
4	5975	11.61176	6804
4	5981	11.61256	6840
4	5987	11.6172	6876
4	5993	11.618	6912
4	5999	11.62264	6948
4	6005	11.62344	6984
4	6011	11.62808	7020
4	6017	11.62888	7056
4	6027	11.63352	7092
4	6045	11.63896	7128
4	6067	11.6444	7164
4	6085	11.64984	7200
4	6112	11.65528	7236
4	6126	11.66072	7272
4	6136	11.66616	7308
4	6146	11.6716	7344
4	6156	11.67704	7380
4	6166	11.68248	7416
4	6176	11.68792	7452
4	6623	12.61904	7488
4	6629	12.62368	7524
4	6635	12.62448	7560
4	6641	12.62912	7596
4	6647	12.62992	7632
4	6653	12.63456	7668
4	6659	12.63536	7704
4	6665	12.64	7740
4	6671	12.6408	7776
4	6677	12.64544	7812
4	6683	12.64624	7848
4	6698	12.65088	7884
4	6704	12.65168	7920
4	6710	12.65632	7956
4	6716	12.65712	7992
4	6722	12.66176	8028
4	6728	12.66256	8064
4	6734	12.6672	8100
4	6740	12.668	8136
4	6746	12.67264	8172
4	6752	12.67344	8208
4	6758	12.67808	8244
4	6764	12.67888	8280
4	6770	12.68352	8316
4	6776	12.68432	8352
4	6786	12.68896	8388
4	6804	12.6944	8424
4	6826	12.69984	8460
4	6862	12.70528	8496
4	6880	12.71072	8532
4	6898	12.71616	8568
4	6908	12.7216	8604
4	6918	12.72704	8640
4	6928	12.73248	8676
4	6938	12.73792	8712
4	6948	12.74336	8748
4	6958	12.7488	8784
4	7406	13.66904	8820
4	7412	13.67368	8856
4	7418	13.67448	8892
4	7424	13.67912	8928
4	7430	13.67992	8964
4	7436	13.68456	9000
4	7442	13.68536	9036
4	7448	13.69	9072
4	7454	13.6908	9108
4	7460	13.69544	9144
4	7466	13.69624	9180
4	7490	13.70088	9216
4	7496	13.70168	9252
4	7502	13.70632	9288
4	7508	13.70712	9324
4	7514	13.71176	9360
4	7520	13.71256	9396
4	7526	13.7172	9432
4	7532	13.718	9468
4	7538	13.72264	9504
4	7544	13.72344	9540
4	7550	13.72808	9576
4	7556	13.72888	9612
4	7562	13.73352	9648
4	7568	13.73432	9684
4	7574	13.73896	9720
4	7580	13.73976	9756
4	7590	13.7444	9792
4	7608	13.74984	9828
4	7639	13.75528	9864
4	7657	13.76072	9900
4	7675	13.76616	9936
4	7693	13.7716	9972
4	7707	13.77704	10008
4	7717	13.78248	10044
4	7727	13.78792	10080
4	7737	13.79336	10116
4	7747	13.7988	10152
4	7775	13.80424	10188
4	7785	13.80968	10224
4	8234	14.71904	10260
4	8240	14.72368	10296
4	8246	14.72448	10332
4	8252	14.72912	10368
4	8258	14.72992	10404
4	8264	14.73456	10440
4	8270	14.73536	10476
4	8276	14.74	10512
4	8282	14.7408	10548
4	8288	14.74544	10584
4	8294	14.74624	10620
4	8309	14.75088	10656
4	8315	14.75168	10692
4	8321	14.75632	10728
4	8327	14.75712	10764
4	8333	14.76176	10800
4	8339	14.76256	10836
4	8345	14.7672	10872
4	8351	14.768	10908
4	8357	14.77264	10944
4	8363	14.77344	10980
4	8369	14.77808	11016
4	8375	14.77888	11052
4	8381	14.78352	11088
4	8387	14.78432	11124
4	8393	14.78896	11160
4	8399	14.78976	11196
4	8405	14.7944	11232
4	8411	14.7952	11268
4	8421	14.79984	11304
4	8457	14.80528	11340
4	8479	14.81072	11376
4	8497	14.81616	11412
4	8515	14.8216	11448
4	8533	14.82704	11484
4	8551	14.83248	11520
4	8561	14.83792	11556
4	8571	14.84336	11592
4	8581	14.8488	11628
4	8600	14.85424	11664
4	8610	14.85968	11700
4	8620	14.86512	11736
4	8630	14.87056	11772
5	1491	4.1	30
5	2487	6.1	60
5	3627	8.1	90

