version 2
run A-1-20190828-01:32:34-6638
attr configname A
attr datetime 20190828-01:32:34
attr experiment A
attr inifile SimV2.ini
attr iterationvars $0=3
attr iterationvarsf 3-
attr measurement $0=3
attr network NetworkTormV2
attr processid 6638
attr repetition 0
attr replication #0
attr resultdir results
attr runnumber 1
attr seedset 1
param **.mobility.traceFile "\"paths/A.movements\""
param **.numNodes 3
param **.wirelessIfc.wirelessRange 25m
param **.bluetoothIfc.wirelessRange 25m
param **.numNodes 2
param **.application.usedRNG 1
param **.application.dataGenerationInterval 1ms
param **.application.dataSizeInBytes 10
param **.application.ttl 999999s
param **application.destinationAddr "\"Wf:00:00:00:00:02\""
param **application.destinationBTAddr "\"Bt:00:00:00:00:02\""
param **application.nodesThatGen true
param **application.nodesGenMsg "\"0\""
param **application.startMultipleMsg true
param **application.numMultipleMsg 100
param **application.hopsListSize 50
param **.routingLayer "\"RoutingLayer\""
param **.routing.maximumCacheSize 5000byte
param **.routing.maximumHopCount 25
param **.routing.useTTL false
param **.neighboring.antiEntropyInterval 200ms
param **.neighboring.maximumRandomBackoffDuration 1s
param **.neighboring.delayPerDataMsg 0.1
param **neighboring.usedRNG 2
param **.neighboring.GWAddr "\"02:00:00:00:00:03\""
param **.neighboring.sendWifiFirst true
param **.storage.maximumCacheSize 5000byte
param **.wirelessIfc.wirelessRange 15m
param **.wirelessIfc.neighbourScanInterval 50ms
param **.wirelessIfc.bandwidthBitRate 100000bps
param **.wirelessIfc.wirelessHeaderSize 32byte
param **.wirelessIfc.minSSI -90
param **.bluetoothIfc.wirelessRange 15m
param **.bluetoothIfc.neighbourScanInterval 100ms
param **.bluetoothIfc.bandwidthBitRate 100000bps
param **.bluetoothIfc.wirelessHeaderSize 16byte
param **.bluetoothIfc.minSSI -90
param **.mobilityType "\"BonnMotionMobility\""
param **.mobility.traceFile "\"paths/Moves2.movements\""
param **.mobility.nodeId -1

vector 0 NetworkTormV2 neighbourhoodSize:vector ETV
attr source neighbourhoodSize
vector 1 NetworkTormV2 deliveryRatio:vector ETV
attr source sum(totalDataBytesReceived)/sum(totalDataBytesReceivableByAllNodes)
vector 2 NetworkTormV2 dataBytesReceivedSum:vector ETV
attr source sum(dataBytesReceived)
vector 3 NetworkTormV2 totalBytesReceivedSum:vector ETV
attr source sum(totalBytesReceived)
0	10	0.05	1
0	11	0.05	2
0	12	0.05	1
0	20	0.1	1
0	21	0.1	2
0	22	0.1	1
0	23	0.1	1
0	24	0.1	2
0	25	0.1	1
0	137	0.15	1
0	138	0.15	2
0	139	0.15	1
0	246	0.2	1
0	247	0.2	2
0	248	0.2	1
0	249	0.2	1
0	250	0.2	2
0	251	0.2	1
0	264	0.25	1
0	265	0.25	2
0	266	0.25	1
0	273	0.3	1
0	274	0.3	2
0	275	0.3	1
0	276	0.3	1
0	277	0.3	2
0	278	0.3	1
0	291	0.35	1
0	292	0.35	2
0	293	0.35	1
0	300	0.4	1
0	301	0.4	2
0	302	0.4	1
0	303	0.4	1
0	304	0.4	2
0	305	0.4	1
0	318	0.45	1
0	319	0.45	2
0	320	0.45	1
0	327	0.5	1
0	328	0.5	2
0	329	0.5	1
0	330	0.5	1
0	331	0.5	2
0	332	0.5	1
0	345	0.55	1
0	346	0.55	2
0	347	0.55	1
0	354	0.6	1
0	355	0.6	2
0	356	0.6	1
0	357	0.6	1
0	358	0.6	2
0	359	0.6	1
0	372	0.65	1
0	373	0.65	2
0	374	0.65	1
0	381	0.7	1
0	382	0.7	2
0	383	0.7	1
0	384	0.7	1
0	385	0.7	2
0	386	0.7	1
0	399	0.75	1
0	400	0.75	2
0	401	0.75	1
0	408	0.8	1
0	409	0.8	2
0	410	0.8	1
0	411	0.8	1
0	412	0.8	2
0	413	0.8	1
0	426	0.85	1
0	427	0.85	2
0	428	0.85	1
0	435	0.9	1
0	436	0.9	2
0	437	0.9	1
0	438	0.9	1
0	439	0.9	2
0	440	0.9	1
0	453	0.95	1
0	454	0.95	2
0	455	0.95	1
0	462	1	1
0	463	1	2
0	464	1	1
0	465	1	1
0	466	1	2
0	467	1	1
0	480	1.05	1
0	481	1.05	2
0	482	1.05	1
0	489	1.1	1
0	490	1.1	2
0	491	1.1	1
0	492	1.1	1
0	493	1.1	2
0	494	1.1	1
0	819	1.15	1
0	820	1.15	2
0	821	1.15	1
0	918	1.2	1
0	919	1.2	2
0	920	1.2	1
0	921	1.2	1
0	922	1.2	2
0	923	1.2	1
0	1032	1.25	1
0	1033	1.25	2
0	1034	1.25	1
0	1131	1.3	1
0	1132	1.3	2
0	1133	1.3	1
0	1134	1.3	1
0	1135	1.3	2
0	1136	1.3	1
0	1239	1.35	1
0	1240	1.35	2
0	1241	1.35	1
0	1491	1.4	1
0	1492	1.4	2
0	1493	1.4	1
0	1494	1.4	1
0	1495	1.4	2
0	1496	1.4	1
0	1653	1.45	1
0	1654	1.45	2
0	1655	1.45	1
0	1818	1.5	1
0	1819	1.5	2
0	1820	1.5	1
0	1821	1.5	1
0	1822	1.5	2
0	1823	1.5	1
0	1980	1.55	1
0	1981	1.55	2
0	1982	1.55	1
0	2150	1.6	1
0	2151	1.6	2
0	2152	1.6	1
0	2153	1.6	1
0	2154	1.6	2
0	2155	1.6	1
0	2308	1.65	1
0	2309	1.65	2
0	2310	1.65	1
0	2423	1.7	1
0	2424	1.7	2
0	2425	1.7	1
0	2426	1.7	1
0	2427	1.7	2
0	2428	1.7	1
0	2630	1.75	1
0	2631	1.75	2
0	2632	1.75	1
0	2711	1.8	1
0	2712	1.8	2
0	2713	1.8	1
0	2714	1.8	1
0	2715	1.8	2
0	2716	1.8	1
0	2829	1.85	1
0	2830	1.85	2
0	2831	1.85	1
0	2937	1.9	1
0	2938	1.9	2
0	2939	1.9	1
0	2940	1.9	1
0	2941	1.9	2
0	2942	1.9	1
0	3049	1.95	1
0	3050	1.95	2
0	3051	1.95	1
0	3148	2	1
0	3149	2	2
0	3150	2	1
0	3151	2	1
0	3152	2	2
0	3153	2	1
0	3256	2.05	1
0	3257	2.05	2
0	3258	2.05	1
0	3354	2.1	1
0	3355	2.1	2
0	3356	2.1	1
0	3357	2.1	1
0	3358	2.1	2
0	3359	2.1	1
0	3372	2.15	1
0	3373	2.15	2
0	3374	2.15	1
0	3381	2.2	1
0	3382	2.2	2
0	3383	2.2	1
0	3384	2.2	1
0	3385	2.2	2
0	3386	2.2	1
0	3425	2.25	1
0	3426	2.25	2
0	3427	2.25	1
0	3434	2.3	1
0	3435	2.3	2
0	3436	2.3	1
0	3437	2.3	1
0	3438	2.3	2
0	3439	2.3	1
0	3452	2.35	1
0	3453	2.35	2
0	3454	2.35	1
0	3487	2.4	1
0	3488	2.4	2
0	3489	2.4	1
0	3490	2.4	1
0	3491	2.4	2
0	3492	2.4	1
0	3505	2.45	1
0	3506	2.45	2
0	3507	2.45	1
0	3514	2.5	1
0	3515	2.5	2
0	3516	2.5	1
0	3517	2.5	1
0	3518	2.5	2
0	3519	2.5	1
0	3558	2.55	1
0	3559	2.55	2
0	3560	2.55	1
0	3567	2.6	1
0	3568	2.6	2
0	3569	2.6	1
0	3570	2.6	1
0	3571	2.6	2
0	3572	2.6	1
0	3585	2.65	1
0	3586	2.65	2
0	3587	2.65	1
0	3620	2.7	1
0	3621	2.7	2
0	3622	2.7	1
0	3623	2.7	1
0	3624	2.7	2
0	3625	2.7	1
0	3638	2.75	1
0	3639	2.75	2
0	3640	2.75	1
0	3647	2.8	1
0	3648	2.8	2
0	3649	2.8	1
0	3650	2.8	1
0	3651	2.8	2
0	3652	2.8	1
0	3691	2.85	1
0	3692	2.85	2
0	3693	2.85	1
0	3700	2.9	1
0	3701	2.9	2
0	3702	2.9	1
0	3703	2.9	1
0	3704	2.9	2
0	3705	2.9	1
0	3718	2.95	1
0	3719	2.95	2
0	3720	2.95	1
0	3753	3	1
0	3754	3	2
0	3755	3	1
0	3756	3	1
0	3757	3	2
0	3758	3	1
0	3771	3.05	1
0	3772	3.05	2
0	3773	3.05	1
0	3780	3.1	1
0	3781	3.1	2
0	3782	3.1	1
0	3783	3.1	1
0	3784	3.1	2
0	3785	3.1	1
0	3824	3.15	1
0	3825	3.15	2
0	3826	3.15	1
0	3833	3.2	1
0	3834	3.2	2
0	3835	3.2	1
0	3836	3.2	1
0	3837	3.2	2
0	3838	3.2	1
0	3851	3.25	1
0	3852	3.25	2
0	3853	3.25	1
0	3886	3.3	1
0	3887	3.3	2
0	3888	3.3	1
0	3889	3.3	1
0	3890	3.3	2
0	3891	3.3	1
0	3904	3.35	1
0	3905	3.35	2
0	3906	3.35	1
0	3913	3.4	1
0	3914	3.4	2
0	3915	3.4	1
0	3916	3.4	1
0	3917	3.4	2
0	3918	3.4	1
0	3957	3.45	1
0	3958	3.45	2
0	3959	3.45	1
0	3966	3.5	1
0	3967	3.5	2
0	3968	3.5	1
0	3969	3.5	1
0	3970	3.5	2
0	3971	3.5	1
0	3984	3.55	1
0	3985	3.55	2
0	3986	3.55	1
0	4019	3.6	1
0	4020	3.6	2
0	4021	3.6	1
0	4022	3.6	1
0	4023	3.6	2
0	4024	3.6	1
0	4037	3.65	1
0	4038	3.65	2
0	4039	3.65	1
0	4046	3.7	1
0	4047	3.7	2
0	4048	3.7	1
0	4049	3.7	1
0	4050	3.7	2
0	4051	3.7	1
0	4090	3.75	1
0	4091	3.75	2
0	4092	3.75	1
0	4099	3.8	1
0	4100	3.8	2
0	4101	3.8	1
0	4102	3.8	1
0	4103	3.8	2
0	4104	3.8	1
0	4117	3.85	1
0	4118	3.85	2
0	4119	3.85	1
0	4152	3.9	1
0	4153	3.9	2
0	4154	3.9	1
0	4155	3.9	1
0	4156	3.9	2
0	4157	3.9	1
0	4170	3.95	1
0	4171	3.95	2
0	4172	3.95	1
0	4179	4	1
0	4180	4	2
0	4181	4	1
0	4182	4	1
0	4183	4	2
0	4184	4	1
0	4223	4.05	1
0	4224	4.05	2
0	4225	4.05	1
0	4232	4.1	1
0	4233	4.1	2
0	4234	4.1	1
0	4235	4.1	1
0	4236	4.1	2
0	4237	4.1	1
0	4250	4.15	1
0	4251	4.15	2
0	4252	4.15	1
0	4285	4.2	1
0	4286	4.2	2
0	4287	4.2	1
0	4288	4.2	1
0	4289	4.2	2
0	4290	4.2	1
0	4303	4.25	1
0	4304	4.25	2
0	4305	4.25	1
0	4312	4.3	1
0	4313	4.3	2
0	4314	4.3	1
0	4315	4.3	1
0	4316	4.3	2
0	4317	4.3	1
0	4356	4.35	1
0	4357	4.35	2
0	4358	4.35	1
0	4365	4.4	1
0	4366	4.4	2
0	4367	4.4	1
0	4368	4.4	1
0	4369	4.4	2
0	4370	4.4	1
0	4383	4.45	1
0	4384	4.45	2
0	4385	4.45	1
0	4418	4.5	1
0	4419	4.5	2
0	4420	4.5	1
0	4421	4.5	1
0	4422	4.5	2
0	4423	4.5	1
0	4436	4.55	1
0	4437	4.55	2
0	4438	4.55	1
0	4445	4.6	1
0	4446	4.6	2
0	4447	4.6	1
0	4448	4.6	1
0	4449	4.6	2
0	4450	4.6	1
0	4489	4.65	1
0	4490	4.65	2
0	4491	4.65	1
0	4498	4.7	1
0	4499	4.7	2
0	4500	4.7	1
0	4501	4.7	1
0	4502	4.7	2
0	4503	4.7	1
0	4516	4.75	1
0	4517	4.75	2
0	4518	4.75	1
0	4551	4.8	1
0	4552	4.8	2
0	4553	4.8	1
0	4554	4.8	1
0	4555	4.8	2
0	4556	4.8	1
0	4569	4.85	1
0	4570	4.85	2
0	4571	4.85	1
0	4578	4.9	1
0	4579	4.9	2
0	4580	4.9	1
0	4581	4.9	1
0	4582	4.9	2
0	4583	4.9	1
0	4622	4.95	1
0	4623	4.95	2
0	4624	4.95	1
0	4631	5	1
0	4632	5	2
0	4633	5	1
0	4634	5	1
0	4635	5	2
0	4636	5	1
0	4649	5.05	1
0	4650	5.05	2
0	4651	5.05	1
0	4684	5.1	1
0	4685	5.1	2
0	4686	5.1	1
0	4687	5.1	1
0	4688	5.1	2
0	4689	5.1	1
0	4702	5.15	1
0	4703	5.15	2
0	4704	5.15	1
0	4711	5.2	1
0	4712	5.2	2
0	4713	5.2	1
0	4714	5.2	1
0	4715	5.2	2
0	4716	5.2	1
0	4755	5.25	1
0	4756	5.25	2
0	4757	5.25	1
0	4764	5.3	1
0	4765	5.3	2
0	4766	5.3	1
0	4767	5.3	1
0	4768	5.3	2
0	4769	5.3	1
0	4782	5.35	1
0	4783	5.35	2
0	4784	5.35	1
0	4817	5.4	1
0	4818	5.4	2
0	4819	5.4	1
0	4820	5.4	1
0	4821	5.4	2
0	4822	5.4	1
0	4835	5.45	1
0	4836	5.45	2
0	4837	5.45	1
0	4844	5.5	1
0	4845	5.5	2
0	4846	5.5	1
0	4847	5.5	1
0	4848	5.5	2
0	4849	5.5	1
0	4888	5.55	1
0	4889	5.55	2
0	4890	5.55	1
0	4897	5.6	1
0	4898	5.6	2
0	4899	5.6	1
0	4900	5.6	1
0	4901	5.6	2
0	4902	5.6	1
0	4915	5.65	1
0	4916	5.65	2
0	4917	5.65	1
0	4950	5.7	1
0	4951	5.7	2
0	4952	5.7	1
0	4953	5.7	1
0	4954	5.7	2
0	4955	5.7	1
0	4968	5.75	1
0	4969	5.75	2
0	4970	5.75	1
0	4977	5.8	1
0	4978	5.8	2
0	4979	5.8	1
0	4980	5.8	1
0	4981	5.8	2
0	4982	5.8	1
0	5021	5.85	1
0	5022	5.85	2
0	5023	5.85	1
0	5030	5.9	1
0	5031	5.9	2
0	5032	5.9	1
0	5033	5.9	1
0	5034	5.9	2
0	5035	5.9	1
0	5048	5.95	1
0	5049	5.95	2
0	5050	5.95	1
0	5083	6	1
0	5084	6	2
0	5085	6	1
0	5086	6	1
0	5087	6	2
0	5088	6	1
0	5101	6.05	1
0	5102	6.05	2
0	5103	6.05	1
0	5110	6.1	1
0	5111	6.1	2
0	5112	6.1	1
0	5113	6.1	1
0	5114	6.1	2
0	5115	6.1	1
0	5154	6.15	1
0	5155	6.15	2
0	5156	6.15	1
0	5163	6.2	1
0	5164	6.2	2
0	5165	6.2	1
0	5166	6.2	1
0	5167	6.2	2
0	5168	6.2	1
0	5181	6.25	1
0	5182	6.25	2
0	5183	6.25	1
0	5216	6.3	1
0	5217	6.3	2
0	5218	6.3	1
0	5219	6.3	1
0	5220	6.3	2
0	5221	6.3	1
0	5234	6.35	1
0	5235	6.35	2
0	5236	6.35	1
0	5243	6.4	1
0	5244	6.4	2
0	5245	6.4	1
0	5246	6.4	1
0	5247	6.4	2
0	5248	6.4	1
0	5287	6.45	1
0	5288	6.45	2
0	5289	6.45	1
0	5296	6.5	1
0	5297	6.5	2
0	5298	6.5	1
0	5299	6.5	1
0	5300	6.5	2
0	5301	6.5	1
0	5314	6.55	1
0	5315	6.55	2
0	5316	6.55	1
0	5349	6.6	1
0	5350	6.6	2
0	5351	6.6	1
0	5352	6.6	1
0	5353	6.6	2
0	5354	6.6	1
0	5367	6.65	1
0	5368	6.65	2
0	5369	6.65	1
0	5376	6.7	1
0	5377	6.7	2
0	5378	6.7	1
0	5379	6.7	1
0	5380	6.7	2
0	5381	6.7	1
0	5420	6.75	1
0	5421	6.75	2
0	5422	6.75	1
0	5429	6.8	1
0	5430	6.8	2
0	5431	6.8	1
0	5432	6.8	1
0	5433	6.8	2
0	5434	6.8	1
0	5447	6.85	1
0	5448	6.85	2
0	5449	6.85	1
0	5482	6.9	1
0	5483	6.9	2
0	5484	6.9	1
0	5485	6.9	1
0	5486	6.9	2
0	5487	6.9	1
0	5500	6.95	1
0	5501	6.95	2
0	5502	6.95	1
0	5509	7	1
0	5510	7	2
0	5511	7	1
0	5512	7	1
0	5513	7	2
0	5514	7	1
0	5553	7.05	1
0	5554	7.05	2
0	5555	7.05	1
0	5562	7.1	1
0	5563	7.1	2
0	5564	7.1	1
0	5565	7.1	1
0	5566	7.1	2
0	5567	7.1	1
0	5580	7.15	1
0	5581	7.15	2
0	5582	7.15	1
0	5615	7.2	1
0	5616	7.2	2
0	5617	7.2	1
0	5618	7.2	1
0	5619	7.2	2
0	5620	7.2	1
0	5633	7.25	1
0	5634	7.25	2
0	5635	7.25	1
0	5642	7.3	1
0	5643	7.3	2
0	5644	7.3	1
0	5645	7.3	1
0	5646	7.3	2
0	5647	7.3	1
0	5686	7.35	1
0	5687	7.35	2
0	5688	7.35	1
0	5695	7.4	1
0	5696	7.4	2
0	5697	7.4	1
0	5698	7.4	1
0	5699	7.4	2
0	5700	7.4	1
0	5713	7.45	1
0	5714	7.45	2
0	5715	7.45	1
0	5748	7.5	1
0	5749	7.5	2
0	5750	7.5	1
0	5751	7.5	1
0	5752	7.5	2
0	5753	7.5	1
0	5766	7.55	1
0	5767	7.55	2
0	5768	7.55	1
0	5775	7.6	1
0	5776	7.6	2
0	5777	7.6	1
0	5778	7.6	1
0	5779	7.6	2
0	5780	7.6	1
0	5819	7.65	1
0	5820	7.65	2
0	5821	7.65	1
0	5828	7.7	1
0	5829	7.7	2
0	5830	7.7	1
0	5831	7.7	1
0	5832	7.7	2
0	5833	7.7	1
0	5846	7.75	1
0	5847	7.75	2
0	5848	7.75	1
0	5881	7.8	1
0	5882	7.8	2
0	5883	7.8	1
0	5884	7.8	1
0	5885	7.8	2
0	5886	7.8	1
0	5899	7.85	1
0	5900	7.85	2
0	5901	7.85	1
0	5908	7.9	1
0	5909	7.9	2
0	5910	7.9	1
0	5911	7.9	1
0	5912	7.9	2
0	5913	7.9	1
0	5952	7.95	1
0	5953	7.95	2
0	5954	7.95	1
0	5961	8	1
0	5962	8	2
0	5963	8	1
0	5964	8	1
0	5965	8	2
0	5966	8	1
0	5979	8.05	1
0	5980	8.05	2
0	5981	8.05	1
0	6014	8.1	1
0	6015	8.1	2
0	6016	8.1	1
0	6017	8.1	1
0	6018	8.1	2
0	6019	8.1	1
0	6032	8.15	1
0	6033	8.15	2
0	6034	8.15	1
0	6041	8.2	1
0	6042	8.2	2
0	6043	8.2	1
0	6044	8.2	1
0	6045	8.2	2
0	6046	8.2	1
0	6085	8.25	1
0	6086	8.25	2
0	6087	8.25	1
0	6094	8.3	1
0	6095	8.3	2
0	6096	8.3	1
0	6097	8.3	1
0	6098	8.3	2
0	6099	8.3	1
0	6112	8.35	1
0	6113	8.35	2
0	6114	8.35	1
0	6147	8.4	1
0	6148	8.4	2
0	6149	8.4	1
0	6150	8.4	1
0	6151	8.4	2
0	6152	8.4	1
0	6165	8.45	1
0	6166	8.45	2
0	6167	8.45	1
0	6174	8.5	1
0	6175	8.5	2
0	6176	8.5	1
0	6177	8.5	1
0	6178	8.5	2
0	6179	8.5	1
0	6218	8.55	1
0	6219	8.55	2
0	6220	8.55	1
0	6227	8.6	1
0	6228	8.6	2
0	6229	8.6	1
0	6230	8.6	1
0	6231	8.6	2
0	6232	8.6	1
0	6245	8.65	1
0	6246	8.65	2
0	6247	8.65	1
0	6280	8.7	1
0	6281	8.7	2
0	6282	8.7	1
0	6283	8.7	1
0	6284	8.7	2
0	6285	8.7	1
0	6298	8.75	1
0	6299	8.75	2
0	6300	8.75	1
0	6307	8.8	1
0	6308	8.8	2
0	6309	8.8	1
0	6310	8.8	1
0	6311	8.8	2
0	6312	8.8	1
0	6351	8.85	1
0	6352	8.85	2
0	6353	8.85	1
0	6360	8.9	1
0	6361	8.9	2
0	6362	8.9	1
0	6363	8.9	1
0	6364	8.9	2
0	6365	8.9	1
0	6378	8.95	1
0	6379	8.95	2
0	6380	8.95	1
0	6413	9	1
0	6414	9	2
0	6415	9	1
0	6416	9	1
0	6417	9	2
0	6418	9	1
0	6431	9.05	1
0	6432	9.05	2
0	6433	9.05	1
0	6440	9.1	1
0	6441	9.1	2
0	6442	9.1	1
0	6443	9.1	1
0	6444	9.1	2
0	6445	9.1	1
0	6484	9.15	1
0	6485	9.15	2
0	6486	9.15	1
0	6493	9.2	1
0	6494	9.2	2
0	6495	9.2	1
0	6496	9.2	1
0	6497	9.2	2
0	6498	9.2	1
0	6511	9.25	1
0	6512	9.25	2
0	6513	9.25	1
0	6546	9.3	1
0	6547	9.3	2
0	6548	9.3	1
0	6549	9.3	1
0	6550	9.3	2
0	6551	9.3	1
0	6564	9.35	1
0	6565	9.35	2
0	6566	9.35	1
0	6573	9.4	1
0	6574	9.4	2
0	6575	9.4	1
0	6576	9.4	1
0	6577	9.4	2
0	6578	9.4	1
0	6617	9.45	1
0	6618	9.45	2
0	6619	9.45	1
0	6626	9.5	1
0	6627	9.5	2
0	6628	9.5	1
0	6629	9.5	1
0	6630	9.5	2
0	6631	9.5	1
0	6644	9.55	1
0	6645	9.55	2
0	6646	9.55	1
0	6679	9.6	1
0	6680	9.6	2
0	6681	9.6	1
0	6682	9.6	1
0	6683	9.6	2
0	6684	9.6	1
0	6697	9.65	1
0	6698	9.65	2
0	6699	9.65	1
0	6706	9.7	1
0	6707	9.7	2
0	6708	9.7	1
0	6709	9.7	1
0	6710	9.7	2
0	6711	9.7	1
0	6750	9.75	1
0	6751	9.75	2
0	6752	9.75	1
0	6759	9.8	1
0	6760	9.8	2
0	6761	9.8	1
0	6762	9.8	1
0	6763	9.8	2
0	6764	9.8	1
0	6777	9.85	1
0	6778	9.85	2
0	6779	9.85	1
0	6812	9.9	1
0	6813	9.9	2
0	6814	9.9	1
0	6815	9.9	1
0	6816	9.9	2
0	6817	9.9	1
0	6830	9.95	1
0	6831	9.95	2
0	6832	9.95	1
0	6839	10	1
0	6840	10	2
0	6841	10	1
0	6842	10	1
0	6843	10	2
0	6844	10	1
1	19	0.1	-nan
1	39	0.101	-nan
1	41	0.102	-nan
1	43	0.103	-nan
1	45	0.104	-nan
1	47	0.105	-nan
1	49	0.106	-nan
1	51	0.107	-nan
1	53	0.108	-nan
1	55	0.109	-nan
1	57	0.11	-nan
1	59	0.111	-nan
1	61	0.112	-nan
1	63	0.113	-nan
1	65	0.114	-nan
1	67	0.115	-nan
1	69	0.116	-nan
1	71	0.117	-nan
1	73	0.118	-nan
1	75	0.119	-nan
1	77	0.12	-nan
1	79	0.121	-nan
1	81	0.122	-nan
1	83	0.123	-nan
1	85	0.124	-nan
1	87	0.125	-nan
1	89	0.126	-nan
1	91	0.127	-nan
1	93	0.128	-nan
1	95	0.129	-nan
1	97	0.13	-nan
1	99	0.131	-nan
1	101	0.132	-nan
1	103	0.133	-nan
1	105	0.134	-nan
1	107	0.135	-nan
1	109	0.136	-nan
1	111	0.137	-nan
1	113	0.138	-nan
1	115	0.139	-nan
1	117	0.14	-nan
1	119	0.141	-nan
1	121	0.142	-nan
1	123	0.143	-nan
1	125	0.144	-nan
1	127	0.145	-nan
1	129	0.146	-nan
1	131	0.147	-nan
1	133	0.148	-nan
1	135	0.149	-nan
1	140	0.15	-nan
1	148	0.151	-nan
1	150	0.152	-nan
1	152	0.153	-nan
1	154	0.154	-nan
1	156	0.155	-nan
1	158	0.156	-nan
1	160	0.157	-nan
1	162	0.158	-nan
1	164	0.159	-nan
1	166	0.16	-nan
1	168	0.161	-nan
1	170	0.162	-nan
1	172	0.163	-nan
1	174	0.164	-nan
1	176	0.165	-nan
1	178	0.166	-nan
1	180	0.167	-nan
1	182	0.168	-nan
1	184	0.169	-nan
1	186	0.17	-nan
1	188	0.171	-nan
1	190	0.172	-nan
1	192	0.173	-nan
1	194	0.174	-nan
1	196	0.175	-nan
1	198	0.176	-nan
1	200	0.177	-nan
1	202	0.178	-nan
1	204	0.179	-nan
1	206	0.18	-nan
1	208	0.181	-nan
1	210	0.182	-nan
1	212	0.183	-nan
1	214	0.184	-nan
1	216	0.185	-nan
1	218	0.186	-nan
1	220	0.187	-nan
1	222	0.188	-nan
1	224	0.189	-nan
1	226	0.19	-nan
1	228	0.191	-nan
1	230	0.192	-nan
1	232	0.193	-nan
1	234	0.194	-nan
1	236	0.195	-nan
1	238	0.196	-nan
1	240	0.197	-nan
1	242	0.198	-nan
1	244	0.199	-nan
2	762	1.11904	36
2	772	1.12448	72
2	782	1.12992	108
2	792	1.13536	144
2	802	1.1408	180
2	812	1.14624	216
2	831	1.15168	252
2	841	1.15712	288
2	851	1.16256	324
2	861	1.168	360
2	871	1.17344	396
2	881	1.17888	432
2	891	1.18432	468
2	901	1.18976	504
2	911	1.1952	540
2	939	1.20064	576
2	949	1.20608	612
2	959	1.21152	648
2	969	1.21696	684
2	979	1.2224	720
2	989	1.22784	756
2	999	1.23328	792
2	1009	1.23872	828
2	1019	1.24416	864
2	1029	1.2496	900
2	1048	1.25504	936
2	1058	1.26048	972
2	1068	1.26592	1008
2	1078	1.27136	1044
2	1088	1.2768	1080
2	1098	1.28224	1116
2	1108	1.28768	1152
2	1118	1.29312	1188
2	1128	1.29856	1224
2	1156	1.304	1260
2	1166	1.30944	1296
2	1176	1.31488	1332
2	1186	1.32032	1368
2	1196	1.32576	1404
2	1206	1.3312	1440
2	1216	1.33664	1476
2	1226	1.34208	1512
2	1236	1.34752	1548
2	1263	1.35296	1584
2	1283	1.3584	1620
2	1394	1.36384	1656
2	1408	1.36928	1692
2	1414	1.37424	1728
2	1420	1.37472	1764
2	1430	1.37968	1800
2	1436	1.38016	1836
2	1446	1.38512	1872
2	1452	1.3856	1908
2	1462	1.39056	1944
2	1468	1.39104	1980
2	1478	1.396	2016
2	1484	1.39648	2052
2	1512	1.40144	2088
2	1518	1.40192	2124
2	1528	1.40688	2160
2	1534	1.40736	2196
2	1544	1.41232	2232
2	1550	1.4128	2268
2	1560	1.41776	2304
2	1566	1.41824	2340
2	1576	1.4232	2376
2	1582	1.42368	2412
2	1592	1.42864	2448
2	1598	1.42912	2484
2	1608	1.43408	2520
2	1614	1.43456	2556
2	1624	1.43952	2592
2	1630	1.44	2628
2	1640	1.44496	2664
2	1646	1.44544	2700
2	1665	1.4504	2736
2	1671	1.45088	2772
2	1681	1.45584	2808
2	1687	1.45632	2844
2	1697	1.46128	2880
2	1703	1.46176	2916
2	1713	1.46672	2952
2	1719	1.4672	2988
2	1729	1.47216	3024
2	1735	1.47264	3060
2	1745	1.4776	3096
2	1751	1.47808	3132
2	1761	1.48304	3168
2	1767	1.48352	3204
2	1777	1.48848	3240
2	1783	1.48896	3276
2	1793	1.49392	3312
2	1799	1.4944	3348
2	1809	1.49936	3384
2	1815	1.49984	3420
2	1843	1.5048	3456
2	1849	1.50528	3492
2	1859	1.51024	3528
2	1865	1.51072	3564
2	1875	1.51568	3600
2	1881	1.51616	3636
2	1891	1.52112	3672
2	1897	1.5216	3708
2	1907	1.52656	3744
2	1913	1.52704	3780
2	1923	1.532	3816
2	1929	1.53248	3852
2	1939	1.53744	3888
2	1945	1.53792	3924
2	1955	1.54288	3960
2	1961	1.54336	3996
2	1971	1.54832	4032
2	1977	1.5488	4068
2	2002	1.55376	4104
2	2008	1.55424	4140
2	2025	1.5592	4176
2	2031	1.55968	4212
2	2041	1.56464	4248
2	2047	1.56512	4284
2	2057	1.57008	4320
2	2063	1.57056	4356
2	2073	1.57552	4392
2	2079	1.576	4428
2	2089	1.58096	4464
2	2095	1.58144	4500
2	2105	1.5864	4536
2	2111	1.58688	4572
2	2121	1.59184	4608
2	2127	1.59232	4644
2	2137	1.59728	4680
2	2143	1.59776	4716
2	2171	1.60272	4752
2	2177	1.6032	4788
2	2187	1.60816	4824
2	2193	1.60864	4860
2	2203	1.6136	4896
2	2209	1.61408	4932
2	2227	1.61952	4968
2	2241	1.62496	5004
2	2255	1.6304	5040
2	2269	1.63584	5076
2	2283	1.64128	5112
2	2297	1.64672	5148
2	2324	1.65216	5184
2	2338	1.6576	5220
2	2674	1.77824	5256
2	2684	1.78368	5292
2	2694	1.78912	5328
2	2704	1.79456	5364
2	2734	1.8	5400
2	2746	1.80544	5436
2	2756	1.81088	5472
2	2766	1.81632	5508
2	2776	1.82176	5544
2	2786	1.8272	5580
2	2796	1.83264	5616
2	2806	1.83808	5652
2	2816	1.84352	5688
2	2826	1.84896	5724
2	2847	1.8544	5760
2	2864	1.85984	5796
2	2874	1.86528	5832
2	2884	1.87072	5868
2	2894	1.87616	5904
2	2904	1.8816	5940
2	2914	1.88704	5976
2	2924	1.89248	6012
2	2934	1.89792	6048
2	2962	1.90336	6084
2	2972	1.9088	6120
2	2982	1.91424	6156
2	2992	1.91968	6192
2	3002	1.92512	6228
2	3012	1.93056	6264
2	3022	1.936	6300
2	3032	1.94144	6336
2	3042	1.94688	6372
2	3061	1.95232	6408
2	3071	1.95776	6444
2	3081	1.9632	6480
2	3091	1.96864	6516
2	3101	1.97408	6552
2	3111	1.97952	6588
2	3121	1.98496	6624
2	3131	1.9904	6660
2	3141	1.99584	6696
2	3169	2.00128	6732
2	3179	2.00672	6768
2	3189	2.01216	6804
2	3199	2.0176	6840
2	3209	2.02304	6876
2	3219	2.02848	6912
2	3229	2.03392	6948
2	3239	2.03936	6984
2	3249	2.0448	7020
2	3270	2.05024	7056
2	3280	2.05568	7092
2	3290	2.06112	7128
2	3300	2.06656	7164
2	3310	2.072	7200
3	762	1.11904	36
3	772	1.12448	72
3	782	1.12992	108
3	792	1.13536	144
3	802	1.1408	180
3	812	1.14624	216
3	831	1.15168	252
3	841	1.15712	288
3	851	1.16256	324
3	861	1.168	360
3	871	1.17344	396
3	881	1.17888	432
3	891	1.18432	468
3	901	1.18976	504
3	911	1.1952	540
3	939	1.20064	576
3	949	1.20608	612
3	959	1.21152	648
3	969	1.21696	684
3	979	1.2224	720
3	989	1.22784	756
3	999	1.23328	792
3	1009	1.23872	828
3	1019	1.24416	864
3	1029	1.2496	900
3	1048	1.25504	936
3	1058	1.26048	972
3	1068	1.26592	1008
3	1078	1.27136	1044
3	1088	1.2768	1080
3	1098	1.28224	1116
3	1108	1.28768	1152
3	1118	1.29312	1188
3	1128	1.29856	1224
3	1156	1.304	1260
3	1166	1.30944	1296
3	1176	1.31488	1332
3	1186	1.32032	1368
3	1196	1.32576	1404
3	1206	1.3312	1440
3	1216	1.33664	1476
3	1226	1.34208	1512
3	1236	1.34752	1548
3	1263	1.35296	1584
3	1283	1.3584	1620
3	1394	1.36384	1656
3	1408	1.36928	1692
3	1414	1.37424	1728
3	1420	1.37472	1764
3	1430	1.37968	1800
3	1436	1.38016	1836
3	1446	1.38512	1872
3	1452	1.3856	1908
3	1462	1.39056	1944
3	1468	1.39104	1980
3	1478	1.396	2016
3	1484	1.39648	2052
3	1512	1.40144	2088
3	1518	1.40192	2124
3	1528	1.40688	2160
3	1534	1.40736	2196
3	1544	1.41232	2232
3	1550	1.4128	2268
3	1560	1.41776	2304
3	1566	1.41824	2340
3	1576	1.4232	2376
3	1582	1.42368	2412
3	1592	1.42864	2448
3	1598	1.42912	2484
3	1608	1.43408	2520
3	1614	1.43456	2556
3	1624	1.43952	2592
3	1630	1.44	2628
3	1640	1.44496	2664
3	1646	1.44544	2700
3	1665	1.4504	2736
3	1671	1.45088	2772
3	1681	1.45584	2808
3	1687	1.45632	2844
3	1697	1.46128	2880
3	1703	1.46176	2916
3	1713	1.46672	2952
3	1719	1.4672	2988
3	1729	1.47216	3024
3	1735	1.47264	3060
3	1745	1.4776	3096
3	1751	1.47808	3132
3	1761	1.48304	3168
3	1767	1.48352	3204
3	1777	1.48848	3240
3	1783	1.48896	3276
3	1793	1.49392	3312
3	1799	1.4944	3348
3	1809	1.49936	3384
3	1815	1.49984	3420
3	1843	1.5048	3456
3	1849	1.50528	3492
3	1859	1.51024	3528
3	1865	1.51072	3564
3	1875	1.51568	3600
3	1881	1.51616	3636
3	1891	1.52112	3672
3	1897	1.5216	3708
3	1907	1.52656	3744
3	1913	1.52704	3780
3	1923	1.532	3816
3	1929	1.53248	3852
3	1939	1.53744	3888
3	1945	1.53792	3924
3	1955	1.54288	3960
3	1961	1.54336	3996
3	1971	1.54832	4032
3	1977	1.5488	4068
3	2002	1.55376	4104
3	2008	1.55424	4140
3	2025	1.5592	4176
3	2031	1.55968	4212
3	2041	1.56464	4248
3	2047	1.56512	4284
3	2057	1.57008	4320
3	2063	1.57056	4356
3	2073	1.57552	4392
3	2079	1.576	4428
3	2089	1.58096	4464
3	2095	1.58144	4500
3	2105	1.5864	4536
3	2111	1.58688	4572
3	2121	1.59184	4608
3	2127	1.59232	4644
3	2137	1.59728	4680
3	2143	1.59776	4716
3	2171	1.60272	4752
3	2177	1.6032	4788
3	2187	1.60816	4824
3	2193	1.60864	4860
3	2203	1.6136	4896
3	2209	1.61408	4932
3	2227	1.61952	4968
3	2241	1.62496	5004
3	2255	1.6304	5040
3	2269	1.63584	5076
3	2283	1.64128	5112
3	2297	1.64672	5148
3	2324	1.65216	5184
3	2338	1.6576	5220
3	2674	1.77824	5256
3	2684	1.78368	5292
3	2694	1.78912	5328
3	2704	1.79456	5364
3	2734	1.8	5400
3	2746	1.80544	5436
3	2756	1.81088	5472
3	2766	1.81632	5508
3	2776	1.82176	5544
3	2786	1.8272	5580
3	2796	1.83264	5616
3	2806	1.83808	5652
3	2816	1.84352	5688
3	2826	1.84896	5724
3	2847	1.8544	5760
3	2864	1.85984	5796
3	2874	1.86528	5832
3	2884	1.87072	5868
3	2894	1.87616	5904
3	2904	1.8816	5940
3	2914	1.88704	5976
3	2924	1.89248	6012
3	2934	1.89792	6048
3	2962	1.90336	6084
3	2972	1.9088	6120
3	2982	1.91424	6156
3	2992	1.91968	6192
3	3002	1.92512	6228
3	3012	1.93056	6264
3	3022	1.936	6300
3	3032	1.94144	6336
3	3042	1.94688	6372
3	3061	1.95232	6408
3	3071	1.95776	6444
3	3081	1.9632	6480
3	3091	1.96864	6516
3	3101	1.97408	6552
3	3111	1.97952	6588
3	3121	1.98496	6624
3	3131	1.9904	6660
3	3141	1.99584	6696
3	3169	2.00128	6732
3	3179	2.00672	6768
3	3189	2.01216	6804
3	3199	2.0176	6840
3	3209	2.02304	6876
3	3219	2.02848	6912
3	3229	2.03392	6948
3	3239	2.03936	6984
3	3249	2.0448	7020
3	3270	2.05024	7056
3	3280	2.05568	7092
3	3290	2.06112	7128
3	3300	2.06656	7164
3	3310	2.072	7200

