version 2
run A1-0-20190918-14:21:34-24921
attr configname A1
attr datetime 20190918-14:21:34
attr experiment A1
attr inifile SimV2.ini
attr iterationvars ""
attr iterationvarsf ""
attr measurement ""
attr network NetworkTormV2
attr processid 24921
attr repetition 0
attr replication #0
attr resultdir results
attr runnumber 0
attr seedset 0
param **.mobility.traceFile "\"paths/A.movements\""
param **.numNodes 3
param **.wirelessIfc.wirelessRange 40m
param **.bluetoothIfc.wirelessRange 40m
param **.numNodes 2
param **.application.usedRNG 1
param **.application.dataGenerationInterval 1ms
param **.application.dataSizeInBytes 10
param **.application.ttl 999999s
param **application.destinationAddr "\"Wf:00:00:00:00:02\""
param **application.destinationBTAddr "\"Bt:00:00:00:00:02\""
param **application.nodesThatGen true
param **application.nodesGenMsg "\"0\""
param **application.startMultipleMsg true
param **application.numMultipleMsg 100
param **application.hopsListSize 50
param **.application.endGeneratingMsg 999999s
param **.routingLayer "\"RoutingLayer\""
param **.routing.maximumCacheSize 5000byte
param **.routing.maximumHopCount 25
param **.routing.useTTL false
param **.routing.waitBFsend 0.5
param **.routing.max_age 999999s
param **.neighboring.antiEntropyInterval 500ms
param **.neighboring.maximumRandomBackoffDuration 1s
param **.neighboring.delayPerDataMsg 0.1
param **neighboring.usedRNG 2
param **.neighboring.GWAddr "\"Wf:00:00:00:00:02\""
param **.neighboring.sendWifiFirst true
param **.neighboring.maxLengthGraph 20
param **.neighboring.max_age 999999s
param **.neighboring.max_absent_time 1s
param **.wirelessIfc.wirelessRange 15m
param **.wirelessIfc.neighbourScanInterval 50ms
param **.wirelessIfc.bandwidthBitRate 100000bps
param **.wirelessIfc.wirelessHeaderSize 32byte
param **.wirelessIfc.minSSI -90
param **.wirelessIfc.limitQueueTime 400ms
param **.bluetoothIfc.wirelessRange 15m
param **.bluetoothIfc.neighbourScanInterval 100ms
param **.bluetoothIfc.bandwidthBitRate 100000bps
param **.bluetoothIfc.wirelessHeaderSize 16byte
param **.bluetoothIfc.minSSI -90
param **.mobilityType "\"BonnMotionMobility\""
param **.mobility.traceFile "\"paths/Moves2.movements\""
param **.mobility.is3D false
param **.mobility.nodeId -1

vector 0 NetworkTormV2 neighbourhoodSize:vector ETV
attr source neighbourhoodSize
vector 1 NetworkTormV2 deliveryRatio:vector ETV
attr source sum(totalDataBytesReceived)/sum(totalDataBytesReceivableByAllNodes)
vector 2 NetworkTormV2 dataBytesReceivedSum:vector ETV
attr source sum(dataBytesReceived)
vector 3 NetworkTormV2 totalBytesReceivedSum:vector ETV
attr source sum(totalBytesReceived)
0	10	0.05	1
0	11	0.05	2
0	12	0.05	1
0	20	0.1	1
0	21	0.1	2
0	22	0.1	1
0	23	0.1	1
0	24	0.1	2
0	25	0.1	1
0	137	0.15	1
0	138	0.15	2
0	139	0.15	1
0	246	0.2	1
0	247	0.2	2
0	248	0.2	1
0	249	0.2	1
0	250	0.2	2
0	251	0.2	1
0	264	0.25	1
0	265	0.25	2
0	266	0.25	1
0	273	0.3	1
0	274	0.3	2
0	275	0.3	1
0	276	0.3	1
0	277	0.3	2
0	278	0.3	1
0	291	0.35	1
0	292	0.35	2
0	293	0.35	1
0	300	0.4	1
0	301	0.4	2
0	302	0.4	1
0	303	0.4	1
0	304	0.4	2
0	305	0.4	1
0	318	0.45	1
0	319	0.45	2
0	320	0.45	1
0	327	0.5	1
0	328	0.5	2
0	329	0.5	1
0	330	0.5	1
0	331	0.5	2
0	332	0.5	1
0	345	0.55	1
0	346	0.55	2
0	347	0.55	1
0	354	0.6	1
0	355	0.6	2
0	356	0.6	1
0	357	0.6	1
0	358	0.6	2
0	359	0.6	1
0	372	0.65	1
0	373	0.65	2
0	374	0.65	1
0	381	0.7	1
0	382	0.7	2
0	383	0.7	1
0	384	0.7	1
0	385	0.7	2
0	386	0.7	1
0	399	0.75	1
0	400	0.75	2
0	401	0.75	1
0	408	0.8	1
0	409	0.8	2
0	410	0.8	1
0	411	0.8	1
0	412	0.8	2
0	413	0.8	1
0	426	0.85	1
0	427	0.85	2
0	428	0.85	1
0	435	0.9	1
0	436	0.9	2
0	437	0.9	1
0	438	0.9	1
0	439	0.9	2
0	440	0.9	1
0	453	0.95	1
0	454	0.95	2
0	455	0.95	1
0	462	1	1
0	463	1	2
0	464	1	1
0	465	1	1
0	466	1	2
0	467	1	1
0	480	1.05	1
0	481	1.05	2
0	482	1.05	1
0	489	1.1	1
0	490	1.1	2
0	491	1.1	1
0	492	1.1	1
0	493	1.1	2
0	494	1.1	1
0	559	1.15	1
0	560	1.15	2
0	561	1.15	1
0	568	1.2	1
0	569	1.2	2
0	570	1.2	1
0	571	1.2	1
0	572	1.2	2
0	573	1.2	1
0	586	1.25	1
0	587	1.25	2
0	588	1.25	1
0	595	1.3	1
0	596	1.3	2
0	597	1.3	1
0	598	1.3	1
0	599	1.3	2
0	600	1.3	1
0	613	1.35	1
0	614	1.35	2
0	615	1.35	1
0	622	1.4	1
0	623	1.4	2
0	624	1.4	1
0	625	1.4	1
0	626	1.4	2
0	627	1.4	1
0	640	1.45	1
0	641	1.45	2
0	642	1.45	1
0	649	1.5	1
0	650	1.5	2
0	651	1.5	1
0	652	1.5	1
0	653	1.5	2
0	654	1.5	1
0	667	1.55	1
0	668	1.55	2
0	669	1.55	1
0	676	1.6	1
0	677	1.6	2
0	678	1.6	1
0	679	1.6	1
0	680	1.6	2
0	681	1.6	1
0	694	1.65	1
0	695	1.65	2
0	696	1.65	1
0	965	1.7	1
0	966	1.7	2
0	967	1.7	1
0	968	1.7	1
0	969	1.7	2
0	970	1.7	1
0	1023	1.75	1
0	1024	1.75	2
0	1025	1.75	1
0	1068	1.8	1
0	1069	1.8	2
0	1070	1.8	1
0	1071	1.8	1
0	1072	1.8	2
0	1073	1.8	1
0	1120	1.85	1
0	1121	1.85	2
0	1122	1.85	1
0	1160	1.9	1
0	1161	1.9	2
0	1162	1.9	1
0	1163	1.9	1
0	1164	1.9	2
0	1165	1.9	1
0	1208	1.95	1
0	1209	1.95	2
0	1210	1.95	1
0	1254	2	1
0	1255	2	2
0	1256	2	1
0	1257	2	1
0	1258	2	2
0	1259	2	1
0	1308	2.05	1
0	1309	2.05	2
0	1310	2.05	1
0	1342	2.1	1
0	1343	2.1	2
0	1344	2.1	1
0	1345	2.1	1
0	1346	2.1	2
0	1347	2.1	1
0	1400	2.15	1
0	1401	2.15	2
0	1402	2.15	1
0	1440	2.2	1
0	1441	2.2	2
0	1442	2.2	1
0	1443	2.2	1
0	1444	2.2	2
0	1445	2.2	1
0	1525	2.25	1
0	1526	2.25	2
0	1527	2.25	1
0	1571	2.3	1
0	1572	2.3	2
0	1573	2.3	1
0	1574	2.3	1
0	1575	2.3	2
0	1576	2.3	1
0	1619	2.35	1
0	1620	2.35	2
0	1621	2.35	1
0	1668	2.4	1
0	1669	2.4	2
0	1670	2.4	1
0	1671	2.4	1
0	1672	2.4	2
0	1673	2.4	1
0	1719	2.45	1
0	1720	2.45	2
0	1721	2.45	1
0	1759	2.5	1
0	1760	2.5	2
0	1761	2.5	1
0	1762	2.5	1
0	1763	2.5	2
0	1764	2.5	1
0	1817	2.55	1
0	1818	2.55	2
0	1819	2.55	1
0	1856	2.6	1
0	1857	2.6	2
0	1858	2.6	1
0	1859	2.6	1
0	1860	2.6	2
0	1861	2.6	1
0	1911	2.65	1
0	1912	2.65	2
0	1913	2.65	1
0	1956	2.7	1
0	1957	2.7	2
0	1958	2.7	1
0	1959	2.7	1
0	1960	2.7	2
0	1961	2.7	1
0	2008	2.75	1
0	2009	2.75	2
0	2010	2.75	1
0	2083	2.8	1
0	2084	2.8	2
0	2085	2.8	1
0	2086	2.8	1
0	2087	2.8	2
0	2088	2.8	1
0	2122	2.85	1
0	2123	2.85	2
0	2124	2.85	1
0	2171	2.9	1
0	2172	2.9	2
0	2173	2.9	1
0	2174	2.9	1
0	2175	2.9	2
0	2176	2.9	1
0	2225	2.95	1
0	2226	2.95	2
0	2227	2.95	1
0	2268	3	1
0	2269	3	2
0	2270	3	1
0	2271	3	1
0	2272	3	2
0	2273	3	1
0	2323	3.05	1
0	2324	3.05	2
0	2325	3.05	1
0	2340	3.1	1
0	2341	3.1	2
0	2342	3.1	1
0	2343	3.1	1
0	2344	3.1	2
0	2345	3.1	1
0	2358	3.15	1
0	2359	3.15	2
0	2360	3.15	1
0	2367	3.2	1
0	2368	3.2	2
0	2369	3.2	1
0	2370	3.2	1
0	2371	3.2	2
0	2372	3.2	1
0	2385	3.25	1
0	2386	3.25	2
0	2387	3.25	1
0	2394	3.3	1
0	2395	3.3	2
0	2396	3.3	1
0	2397	3.3	1
0	2398	3.3	2
0	2399	3.3	1
0	2438	3.35	1
0	2439	3.35	2
0	2440	3.35	1
0	2447	3.4	1
0	2448	3.4	2
0	2449	3.4	1
0	2450	3.4	1
0	2451	3.4	2
0	2452	3.4	1
0	2465	3.45	1
0	2466	3.45	2
0	2467	3.45	1
0	2474	3.5	1
0	2475	3.5	2
0	2476	3.5	1
0	2477	3.5	1
0	2478	3.5	2
0	2479	3.5	1
0	2492	3.55	1
0	2493	3.55	2
0	2494	3.55	1
0	2501	3.6	1
0	2502	3.6	2
0	2503	3.6	1
0	2504	3.6	1
0	2505	3.6	2
0	2506	3.6	1
0	2519	3.65	1
0	2520	3.65	2
0	2521	3.65	1
0	2528	3.7	1
0	2529	3.7	2
0	2530	3.7	1
0	2531	3.7	1
0	2532	3.7	2
0	2533	3.7	1
0	2546	3.75	1
0	2547	3.75	2
0	2548	3.75	1
0	2555	3.8	1
0	2556	3.8	2
0	2557	3.8	1
0	2558	3.8	1
0	2559	3.8	2
0	2560	3.8	1
0	2641	3.85	1
0	2642	3.85	2
0	2643	3.85	1
0	2700	3.9	1
0	2701	3.9	2
0	2702	3.9	1
0	2703	3.9	1
0	2704	3.9	2
0	2705	3.9	1
0	2752	3.95	1
0	2753	3.95	2
0	2754	3.95	1
0	2781	4	1
0	2782	4	2
0	2783	4	1
0	2784	4	1
0	2785	4	2
0	2786	4	1
0	2799	4.05	1
0	2800	4.05	2
0	2801	4.05	1
0	2808	4.1	1
0	2809	4.1	2
0	2810	4.1	1
0	2811	4.1	1
0	2812	4.1	2
0	2813	4.1	1
0	2826	4.15	1
0	2827	4.15	2
0	2828	4.15	1
0	2835	4.2	1
0	2836	4.2	2
0	2837	4.2	1
0	2838	4.2	1
0	2839	4.2	2
0	2840	4.2	1
0	2853	4.25	1
0	2854	4.25	2
0	2855	4.25	1
0	2862	4.3	1
0	2863	4.3	2
0	2864	4.3	1
0	2865	4.3	1
0	2866	4.3	2
0	2867	4.3	1
0	2880	4.35	1
0	2881	4.35	2
0	2882	4.35	1
0	2939	4.4	1
0	2940	4.4	2
0	2941	4.4	1
0	2942	4.4	1
0	2943	4.4	2
0	2944	4.4	1
0	2983	4.45	1
0	2984	4.45	2
0	2985	4.45	1
0	2992	4.5	1
0	2993	4.5	2
0	2994	4.5	1
0	2995	4.5	1
0	2996	4.5	2
0	2997	4.5	1
0	3010	4.55	1
0	3011	4.55	2
0	3012	4.55	1
0	3019	4.6	1
0	3020	4.6	2
0	3021	4.6	1
0	3022	4.6	1
0	3023	4.6	2
0	3024	4.6	1
0	3037	4.65	1
0	3038	4.65	2
0	3039	4.65	1
0	3046	4.7	1
0	3047	4.7	2
0	3048	4.7	1
0	3049	4.7	1
0	3050	4.7	2
0	3051	4.7	1
0	3064	4.75	1
0	3065	4.75	2
0	3066	4.75	1
0	3073	4.8	1
0	3074	4.8	2
0	3075	4.8	1
0	3076	4.8	1
0	3077	4.8	2
0	3078	4.8	1
0	3091	4.85	1
0	3092	4.85	2
0	3093	4.85	1
0	3100	4.9	1
0	3101	4.9	2
0	3102	4.9	1
0	3103	4.9	1
0	3104	4.9	2
0	3105	4.9	1
0	3144	4.95	1
0	3145	4.95	2
0	3146	4.95	1
0	3176	5	1
0	3177	5	2
0	3178	5	1
0	3179	5	1
0	3180	5	2
0	3181	5	1
0	3194	5.05	1
0	3195	5.05	2
0	3196	5.05	1
0	3203	5.1	1
0	3204	5.1	2
0	3205	5.1	1
0	3206	5.1	1
0	3207	5.1	2
0	3208	5.1	1
0	3221	5.15	1
0	3222	5.15	2
0	3223	5.15	1
0	3230	5.2	1
0	3231	5.2	2
0	3232	5.2	1
0	3233	5.2	1
0	3234	5.2	2
0	3235	5.2	1
0	3248	5.25	1
0	3249	5.25	2
0	3250	5.25	1
0	3257	5.3	1
0	3258	5.3	2
0	3259	5.3	1
0	3260	5.3	1
0	3261	5.3	2
0	3262	5.3	1
0	3275	5.35	1
0	3276	5.35	2
0	3277	5.35	1
0	3284	5.4	1
0	3285	5.4	2
0	3286	5.4	1
0	3287	5.4	1
0	3288	5.4	2
0	3289	5.4	1
0	3302	5.45	1
0	3303	5.45	2
0	3304	5.45	1
0	3337	5.5	1
0	3338	5.5	2
0	3339	5.5	1
0	3340	5.5	1
0	3341	5.5	2
0	3342	5.5	1
0	3598	5.55	1
0	3599	5.55	2
0	3600	5.55	1
0	3631	5.6	1
0	3632	5.6	2
0	3633	5.6	1
0	3634	5.6	1
0	3635	5.6	2
0	3636	5.6	1
0	3680	5.65	1
0	3681	5.65	2
0	3682	5.65	1
0	3729	5.7	1
0	3730	5.7	2
0	3731	5.7	1
0	3732	5.7	1
0	3733	5.7	2
0	3734	5.7	1
0	3783	5.75	1
0	3784	5.75	2
0	3785	5.75	1
0	3826	5.8	1
0	3827	5.8	2
0	3828	5.8	1
0	3829	5.8	1
0	3830	5.8	2
0	3831	5.8	1
0	3881	5.85	1
0	3882	5.85	2
0	3883	5.85	1
0	3920	5.9	1
0	3921	5.9	2
0	3922	5.9	1
0	3923	5.9	1
0	3924	5.9	2
0	3925	5.9	1
0	3978	5.95	1
0	3979	5.95	2
0	3980	5.95	1
0	4014	6	1
0	4015	6	2
0	4016	6	1
0	4017	6	1
0	4018	6	2
0	4019	6	1
0	4074	6.05	1
0	4075	6.05	2
0	4076	6.05	1
0	4116	6.1	1
0	4117	6.1	2
0	4118	6.1	1
0	4119	6.1	1
0	4120	6.1	2
0	4121	6.1	1
0	4164	6.15	1
0	4165	6.15	2
0	4166	6.15	1
0	4213	6.2	1
0	4214	6.2	2
0	4215	6.2	1
0	4216	6.2	1
0	4217	6.2	2
0	4218	6.2	1
0	4267	6.25	1
0	4268	6.25	2
0	4269	6.25	1
0	4310	6.3	1
0	4311	6.3	2
0	4312	6.3	1
0	4313	6.3	1
0	4314	6.3	2
0	4315	6.3	1
0	4368	6.35	1
0	4369	6.35	2
0	4370	6.35	1
0	4398	6.4	1
0	4399	6.4	2
0	4400	6.4	1
0	4401	6.4	1
0	4402	6.4	2
0	4403	6.4	1
0	4456	6.45	1
0	4457	6.45	2
0	4458	6.45	1
0	4505	6.5	1
0	4506	6.5	2
0	4507	6.5	1
0	4508	6.5	1
0	4509	6.5	2
0	4510	6.5	1
0	4550	6.55	1
0	4551	6.55	2
0	4552	6.55	1
0	4595	6.6	1
0	4596	6.6	2
0	4597	6.6	1
0	4598	6.6	1
0	4599	6.6	2
0	4600	6.6	1
0	4651	6.65	1
0	4652	6.65	2
0	4653	6.65	1
0	4694	6.7	1
0	4695	6.7	2
0	4696	6.7	1
0	4697	6.7	1
0	4698	6.7	2
0	4699	6.7	1
0	4740	6.75	1
0	4741	6.75	2
0	4742	6.75	1
0	4779	6.8	1
0	4780	6.8	2
0	4781	6.8	1
0	4782	6.8	1
0	4783	6.8	2
0	4784	6.8	1
0	4837	6.85	1
0	4838	6.85	2
0	4839	6.85	1
0	4882	6.9	1
0	4883	6.9	2
0	4884	6.9	1
0	4885	6.9	1
0	4886	6.9	2
0	4887	6.9	1
0	4926	6.95	1
0	4927	6.95	2
0	4928	6.95	1
0	4999	7	1
0	5000	7	2
0	5001	7	1
0	5002	7	1
0	5003	7	2
0	5004	7	1
0	5044	7.05	1
0	5045	7.05	2
0	5046	7.05	1
0	5105	7.1	1
0	5106	7.1	2
0	5107	7.1	1
0	5108	7.1	1
0	5109	7.1	2
0	5110	7.1	1
0	5154	7.15	1
0	5155	7.15	2
0	5156	7.15	1
0	5181	7.2	1
0	5182	7.2	2
0	5183	7.2	1
0	5184	7.2	1
0	5185	7.2	2
0	5186	7.2	1
0	5239	7.25	1
0	5240	7.25	2
0	5241	7.25	1
0	5258	7.3	1
0	5259	7.3	2
0	5260	7.3	1
0	5261	7.3	1
0	5262	7.3	2
0	5263	7.3	1
0	5276	7.35	1
0	5277	7.35	2
0	5278	7.35	1
0	5285	7.4	1
0	5286	7.4	2
0	5287	7.4	1
0	5288	7.4	1
0	5289	7.4	2
0	5290	7.4	1
0	5303	7.45	1
0	5304	7.45	2
0	5305	7.45	1
0	5312	7.5	1
0	5313	7.5	2
0	5314	7.5	1
0	5315	7.5	1
0	5316	7.5	2
0	5317	7.5	1
0	5330	7.55	1
0	5331	7.55	2
0	5332	7.55	1
0	5339	7.6	1
0	5340	7.6	2
0	5341	7.6	1
0	5342	7.6	1
0	5343	7.6	2
0	5344	7.6	1
0	5383	7.65	1
0	5384	7.65	2
0	5385	7.65	1
0	5392	7.7	1
0	5393	7.7	2
0	5394	7.7	1
0	5395	7.7	1
0	5396	7.7	2
0	5397	7.7	1
0	5410	7.75	1
0	5411	7.75	2
0	5412	7.75	1
0	5445	7.8	1
0	5446	7.8	2
0	5447	7.8	1
0	5448	7.8	1
0	5449	7.8	2
0	5450	7.8	1
0	5463	7.85	1
0	5464	7.85	2
0	5465	7.85	1
0	5472	7.9	1
0	5473	7.9	2
0	5474	7.9	1
0	5475	7.9	1
0	5476	7.9	2
0	5477	7.9	1
0	5490	7.95	1
0	5491	7.95	2
0	5492	7.95	1
0	5499	8	1
0	5500	8	2
0	5501	8	1
0	5502	8	1
0	5503	8	2
0	5504	8	1
0	5517	8.05	1
0	5518	8.05	2
0	5519	8.05	1
0	5526	8.1	1
0	5527	8.1	2
0	5528	8.1	1
0	5529	8.1	1
0	5530	8.1	2
0	5531	8.1	1
0	5544	8.15	1
0	5545	8.15	2
0	5546	8.15	1
0	5579	8.2	1
0	5580	8.2	2
0	5581	8.2	1
0	5582	8.2	1
0	5583	8.2	2
0	5584	8.2	1
0	5597	8.25	1
0	5598	8.25	2
0	5599	8.25	1
0	5606	8.3	1
0	5607	8.3	2
0	5608	8.3	1
0	5609	8.3	1
0	5610	8.3	2
0	5611	8.3	1
0	5650	8.35	1
0	5651	8.35	2
0	5652	8.35	1
0	5659	8.4	1
0	5660	8.4	2
0	5661	8.4	1
0	5662	8.4	1
0	5663	8.4	2
0	5664	8.4	1
0	5677	8.45	1
0	5678	8.45	2
0	5679	8.45	1
0	5686	8.5	1
0	5687	8.5	2
0	5688	8.5	1
0	5689	8.5	1
0	5690	8.5	2
0	5691	8.5	1
0	5704	8.55	1
0	5705	8.55	2
0	5706	8.55	1
0	5713	8.6	1
0	5714	8.6	2
0	5715	8.6	1
0	5716	8.6	1
0	5717	8.6	2
0	5718	8.6	1
0	5731	8.65	1
0	5732	8.65	2
0	5733	8.65	1
0	5740	8.7	1
0	5741	8.7	2
0	5742	8.7	1
0	5743	8.7	1
0	5744	8.7	2
0	5745	8.7	1
0	5784	8.75	1
0	5785	8.75	2
0	5786	8.75	1
0	5793	8.8	1
0	5794	8.8	2
0	5795	8.8	1
0	5796	8.8	1
0	5797	8.8	2
0	5798	8.8	1
0	5811	8.85	1
0	5812	8.85	2
0	5813	8.85	1
0	5846	8.9	1
0	5847	8.9	2
0	5848	8.9	1
0	5849	8.9	1
0	5850	8.9	2
0	5851	8.9	1
0	5864	8.95	1
0	5865	8.95	2
0	5866	8.95	1
0	5873	9	1
0	5874	9	2
0	5875	9	1
0	5876	9	1
0	5877	9	2
0	5878	9	1
0	5891	9.05	1
0	5892	9.05	2
0	5893	9.05	1
0	5900	9.1	1
0	5901	9.1	2
0	5902	9.1	1
0	5903	9.1	1
0	5904	9.1	2
0	5905	9.1	1
0	5918	9.15	1
0	5919	9.15	2
0	5920	9.15	1
0	5927	9.2	1
0	5928	9.2	2
0	5929	9.2	1
0	5930	9.2	1
0	5931	9.2	2
0	5932	9.2	1
0	5945	9.25	1
0	5946	9.25	2
0	5947	9.25	1
0	5980	9.3	1
0	5981	9.3	2
0	5982	9.3	1
0	5983	9.3	1
0	5984	9.3	2
0	5985	9.3	1
0	5998	9.35	1
0	5999	9.35	2
0	6000	9.35	1
0	6007	9.4	1
0	6008	9.4	2
0	6009	9.4	1
0	6010	9.4	1
0	6011	9.4	2
0	6012	9.4	1
0	6051	9.45	1
0	6052	9.45	2
0	6053	9.45	1
0	6060	9.5	1
0	6061	9.5	2
0	6062	9.5	1
0	6063	9.5	1
0	6064	9.5	2
0	6065	9.5	1
0	6078	9.55	1
0	6079	9.55	2
0	6080	9.55	1
0	6087	9.6	1
0	6088	9.6	2
0	6089	9.6	1
0	6090	9.6	1
0	6091	9.6	2
0	6092	9.6	1
0	6105	9.65	1
0	6106	9.65	2
0	6107	9.65	1
0	6114	9.7	1
0	6115	9.7	2
0	6116	9.7	1
0	6117	9.7	1
0	6118	9.7	2
0	6119	9.7	1
0	6132	9.75	1
0	6133	9.75	2
0	6134	9.75	1
0	6141	9.8	1
0	6142	9.8	2
0	6143	9.8	1
0	6144	9.8	1
0	6145	9.8	2
0	6146	9.8	1
0	6185	9.85	1
0	6186	9.85	2
0	6187	9.85	1
0	6194	9.9	1
0	6195	9.9	2
0	6196	9.9	1
0	6197	9.9	1
0	6198	9.9	2
0	6199	9.9	1
0	6212	9.95	1
0	6213	9.95	2
0	6214	9.95	1
0	6247	10	1
0	6248	10	2
0	6249	10	1
0	6250	10	1
0	6251	10	2
0	6252	10	1
1	19	0.1	-nan
1	39	0.101	-nan
1	41	0.102	-nan
1	43	0.103	-nan
1	45	0.104	-nan
1	47	0.105	-nan
1	49	0.106	-nan
1	51	0.107	-nan
1	53	0.108	-nan
1	55	0.109	-nan
1	57	0.11	-nan
1	59	0.111	-nan
1	61	0.112	-nan
1	63	0.113	-nan
1	65	0.114	-nan
1	67	0.115	-nan
1	69	0.116	-nan
1	71	0.117	-nan
1	73	0.118	-nan
1	75	0.119	-nan
1	77	0.12	-nan
1	79	0.121	-nan
1	81	0.122	-nan
1	83	0.123	-nan
1	85	0.124	-nan
1	87	0.125	-nan
1	89	0.126	-nan
1	91	0.127	-nan
1	93	0.128	-nan
1	95	0.129	-nan
1	97	0.13	-nan
1	99	0.131	-nan
1	101	0.132	-nan
1	103	0.133	-nan
1	105	0.134	-nan
1	107	0.135	-nan
1	109	0.136	-nan
1	111	0.137	-nan
1	113	0.138	-nan
1	115	0.139	-nan
1	117	0.14	-nan
1	119	0.141	-nan
1	121	0.142	-nan
1	123	0.143	-nan
1	125	0.144	-nan
1	127	0.145	-nan
1	129	0.146	-nan
1	131	0.147	-nan
1	133	0.148	-nan
1	135	0.149	-nan
1	140	0.15	-nan
1	148	0.151	-nan
1	150	0.152	-nan
1	152	0.153	-nan
1	154	0.154	-nan
1	156	0.155	-nan
1	158	0.156	-nan
1	160	0.157	-nan
1	162	0.158	-nan
1	164	0.159	-nan
1	166	0.16	-nan
1	168	0.161	-nan
1	170	0.162	-nan
1	172	0.163	-nan
1	174	0.164	-nan
1	176	0.165	-nan
1	178	0.166	-nan
1	180	0.167	-nan
1	182	0.168	-nan
1	184	0.169	-nan
1	186	0.17	-nan
1	188	0.171	-nan
1	190	0.172	-nan
1	192	0.173	-nan
1	194	0.174	-nan
1	196	0.175	-nan
1	198	0.176	-nan
1	200	0.177	-nan
1	202	0.178	-nan
1	204	0.179	-nan
1	206	0.18	-nan
1	208	0.181	-nan
1	210	0.182	-nan
1	212	0.183	-nan
1	214	0.184	-nan
1	216	0.185	-nan
1	218	0.186	-nan
1	220	0.187	-nan
1	222	0.188	-nan
1	224	0.189	-nan
1	226	0.19	-nan
1	228	0.191	-nan
1	230	0.192	-nan
1	232	0.193	-nan
1	234	0.194	-nan
1	236	0.195	-nan
1	238	0.196	-nan
1	240	0.197	-nan
1	242	0.198	-nan
1	244	0.199	-nan
2	958	1.688032534095	141
2	986	1.701872534095	282
2	996	1.715712534095	423
2	1006	1.729552534095	564
2	1016	1.743392534095	705
2	1035	1.757232534095	846
2	1045	1.771072534095	987
2	1055	1.784912534095	1128
2	1065	1.798752534095	1269
2	1093	1.812592534095	1410
2	1103	1.826432534095	1551
2	1113	1.840272534095	1692
2	1132	1.854112534095	1833
2	1142	1.867952534095	1974
2	1152	1.881792534095	2115
2	1181	1.909472534095	2256
2	1191	1.923312534095	2397
2	1201	1.937152534095	2538
2	1220	1.950992534095	2679
2	1230	1.964832534095	2820
2	1240	1.978672534095	2961
2	1247	1.992512534095	3102
2	1275	2.006352534095	3243
2	1285	2.020192534095	3384
2	1295	2.034032534095	3525
2	1305	2.047872534095	3666
2	1324	2.061712534095	3807
2	1335	2.089392534095	3948
2	1363	2.103232534095	4089
2	1373	2.117072534095	4230
2	1383	2.130912534095	4371
2	1393	2.144752534095	4512
2	1412	2.158592534095	4653
2	1422	2.172432534095	4794
2	1432	2.186272534095	4935
2	1468	2.200112534095	5076
2	1482	2.213952534095	5217
2	1507	2.227792534095	5358
2	1521	2.241632534095	5499
2	1537	2.255472534095	5640
2	1547	2.269312534095	5781
2	1557	2.283152534095	5922
2	1564	2.296992534095	6063
2	1592	2.310832534095	6204
2	1602	2.324672534095	6345
2	1612	2.338512534095	6486
2	1631	2.352352534095	6627
2	1641	2.366192534095	6768
2	1651	2.380032534095	6909
2	1661	2.393872534095	7050
2	1689	2.407712534095	7191
2	1696	2.421552534095	7332
2	1706	2.435392534095	7473
2	1716	2.449232534095	7614
2	1735	2.463072534095	7755
2	1742	2.476912534095	7896
2	1752	2.490752534095	8037
2	1780	2.504592534095	8178
2	1790	2.518432534095	8319
2	1800	2.532272534095	8460
2	1810	2.546112534095	8601
2	1829	2.559952534095	8742
2	1839	2.573792534095	8883
2	1849	2.587632534095	9024
2	1877	2.601472534095	9165
2	1884	2.615312534095	9306
2	1894	2.629152534095	9447
2	1904	2.642992534095	9588
2	1923	2.656832534095	9729
2	1933	2.670672534095	9870
2	1943	2.684512534095	10011
2	1953	2.698352534095	10152
2	1981	2.712192534095	10293
2	1991	2.726032534095	10434
2	2001	2.739872534095	10575
2	2024	2.753712534095	10716
2	2056	2.767552534095	10857
2	2066	2.781392534095	10998
2	2076	2.795232534095	11139
2	2104	2.809072534095	11280
2	2114	2.822912534095	11421
2	2134	2.850592534095	11562
2	2144	2.864432534095	11703
2	2154	2.878272534095	11844
2	2164	2.892112534095	11985
2	2192	2.905952534095	12126
2	2202	2.919792534095	12267
2	2212	2.933632534095	12408
2	2222	2.947472534095	12549
2	2241	2.961312534095	12690
2	2251	2.975152534095	12831
2	2261	2.988992534095	12972
2	2289	3.002832534095	13113
2	2299	3.016672534095	13254
2	2306	3.030512534095	13395
2	2316	3.044352534095	13536
2	2335	3.058192534095	13677
2	2624	3.828453385287	13818
2	2634	3.842293385287	13959
2	2680	3.869973385287	14100
2	2690	3.883813385287	14241
2	2697	3.897653385287	14382
2	2725	3.911493385287	14523
2	2735	3.925333385287	14664
2	2745	3.939173385287	14805
2	2764	3.953013385287	14946
2	2774	3.966853385287	15087
2	2922	4.378453385287	15228
2	2932	4.392293385287	15369
2	3584	5.528453385287	15510
2	3594	5.542293385287	15651
2	3610	5.556133385287	15792
2	3618	5.583813385287	15933
2	3628	5.597653385287	16074
2	3656	5.611493385287	16215
2	3663	5.625333385287	16356
2	3673	5.639173385287	16497
2	3692	5.653013385287	16638
2	3702	5.666853385287	16779
2	3712	5.680693385287	16920
2	3722	5.694533385287	17061
2	3750	5.708373385287	17202
2	3760	5.722213385287	17343
2	3770	5.736053385287	17484
2	3780	5.749893385287	17625
2	3799	5.763733385287	17766
2	3809	5.777573385287	17907
2	3819	5.791413385287	18048
2	3847	5.805253385287	18189
2	3857	5.819093385287	18330
2	3867	5.832933385287	18471
2	3874	5.846773385287	18612
2	3893	5.860613385287	18753
2	3903	5.874453385287	18894
2	3913	5.888293385287	19035
2	3941	5.902133385287	19176
2	3951	5.915973385287	19317
2	3961	5.929813385287	19458
2	3971	5.943653385287	19599
2	3991	5.971333385287	19740
2	4001	5.985173385287	19881
2	4011	5.999013385287	20022
2	4050	6.012853385287	20163
2	4060	6.026693385287	20304
2	4067	6.040533385287	20445
2	4099	6.082053385287	20586
2	4109	6.095893385287	20727
2	4137	6.109733385287	20868
2	4147	6.123573385287	21009
2	4157	6.137413385287	21150
2	4176	6.151253385287	21291
2	4186	6.165093385287	21432
2	4196	6.178933385287	21573
2	4206	6.192773385287	21714
2	4234	6.206613385287	21855
2	4244	6.220453385287	21996
2	4254	6.234293385287	22137
2	4264	6.248133385287	22278
2	4283	6.261973385287	22419
2	4293	6.275813385287	22560
2	4303	6.289653385287	22701
2	4331	6.303493385287	22842
2	4341	6.317333385287	22983
2	4351	6.331173385287	23124
2	4361	6.345013385287	23265
2	4380	6.358853385287	23406
2	4390	6.372693385287	23547
2	4419	6.400373385287	23688
2	4429	6.414213385287	23829
2	4439	6.428053385287	23970
2	4449	6.441893385287	24111
2	4468	6.455733385287	24252
2	4478	6.469573385287	24393
2	4488	6.483413385287	24534
2	4498	6.497253385287	24675
2	4526	6.511093385287	24816
2	4533	6.524933385287	24957
2	4543	6.538773385287	25098
2	4564	6.552613385287	25239
2	4571	6.566453385287	25380
2	4581	6.580293385287	25521
2	4591	6.594133385287	25662
2	4618	6.607973385287	25803
2	4628	6.621813385287	25944
2	4638	6.635653385287	26085
2	4648	6.649493385287	26226
2	4667	6.663333385287	26367
2	4677	6.677173385287	26508
2	4687	6.691013385287	26649
2	4715	6.704853385287	26790
2	4725	6.718693385287	26931
2	4733	6.746373385287	27072
2	4752	6.760213385287	27213
2	4762	6.774053385287	27354
2	4772	6.787893385287	27495
2	4800	6.801733385287	27636
2	4810	6.815573385287	27777
2	4820	6.829413385287	27918
2	4830	6.843253385287	28059
2	4849	6.857093385287	28200
2	4859	6.870933385287	28341
2	4869	6.884773385287	28482
2	4879	6.898613385287	28623
2	4972	6.965242578373	28764
2	4982	6.979082578373	28905
2	4992	6.992922578373	29046
2	5021	7.020602578373	29187
2	5031	7.034442578373	29328
2	5041	7.048282578373	29469
2	5078	7.062122578373	29610
2	5088	7.075962578373	29751
2	5098	7.089802578373	29892
2	5126	7.103642578373	30033
2	5136	7.117482578373	30174
2	5146	7.131322578373	30315
2	5166	7.159002578373	30456
2	5232	7.238133385287	30597
2	5251	7.251973385287	30738
3	958	1.688032534095	141
3	986	1.701872534095	282
3	996	1.715712534095	423
3	1006	1.729552534095	564
3	1016	1.743392534095	705
3	1035	1.757232534095	846
3	1045	1.771072534095	987
3	1055	1.784912534095	1128
3	1065	1.798752534095	1269
3	1093	1.812592534095	1410
3	1103	1.826432534095	1551
3	1113	1.840272534095	1692
3	1132	1.854112534095	1833
3	1142	1.867952534095	1974
3	1152	1.881792534095	2115
3	1181	1.909472534095	2256
3	1191	1.923312534095	2397
3	1201	1.937152534095	2538
3	1220	1.950992534095	2679
3	1230	1.964832534095	2820
3	1240	1.978672534095	2961
3	1247	1.992512534095	3102
3	1275	2.006352534095	3243
3	1285	2.020192534095	3384
3	1295	2.034032534095	3525
3	1305	2.047872534095	3666
3	1324	2.061712534095	3807
3	1335	2.089392534095	3948
3	1363	2.103232534095	4089
3	1373	2.117072534095	4230
3	1383	2.130912534095	4371
3	1393	2.144752534095	4512
3	1412	2.158592534095	4653
3	1422	2.172432534095	4794
3	1432	2.186272534095	4935
3	1468	2.200112534095	5076
3	1482	2.213952534095	5217
3	1507	2.227792534095	5358
3	1521	2.241632534095	5499
3	1537	2.255472534095	5640
3	1547	2.269312534095	5781
3	1557	2.283152534095	5922
3	1564	2.296992534095	6063
3	1592	2.310832534095	6204
3	1602	2.324672534095	6345
3	1612	2.338512534095	6486
3	1631	2.352352534095	6627
3	1641	2.366192534095	6768
3	1651	2.380032534095	6909
3	1661	2.393872534095	7050
3	1689	2.407712534095	7191
3	1696	2.421552534095	7332
3	1706	2.435392534095	7473
3	1716	2.449232534095	7614
3	1735	2.463072534095	7755
3	1742	2.476912534095	7896
3	1752	2.490752534095	8037
3	1780	2.504592534095	8178
3	1790	2.518432534095	8319
3	1800	2.532272534095	8460
3	1810	2.546112534095	8601
3	1829	2.559952534095	8742
3	1839	2.573792534095	8883
3	1849	2.587632534095	9024
3	1877	2.601472534095	9165
3	1884	2.615312534095	9306
3	1894	2.629152534095	9447
3	1904	2.642992534095	9588
3	1923	2.656832534095	9729
3	1933	2.670672534095	9870
3	1943	2.684512534095	10011
3	1953	2.698352534095	10152
3	1981	2.712192534095	10293
3	1991	2.726032534095	10434
3	2001	2.739872534095	10575
3	2024	2.753712534095	10716
3	2056	2.767552534095	10857
3	2066	2.781392534095	10998
3	2076	2.795232534095	11139
3	2104	2.809072534095	11280
3	2114	2.822912534095	11421
3	2134	2.850592534095	11562
3	2144	2.864432534095	11703
3	2154	2.878272534095	11844
3	2164	2.892112534095	11985
3	2192	2.905952534095	12126
3	2202	2.919792534095	12267
3	2212	2.933632534095	12408
3	2222	2.947472534095	12549
3	2241	2.961312534095	12690
3	2251	2.975152534095	12831
3	2261	2.988992534095	12972
3	2289	3.002832534095	13113
3	2299	3.016672534095	13254
3	2306	3.030512534095	13395
3	2316	3.044352534095	13536
3	2335	3.058192534095	13677
3	2624	3.828453385287	13818
3	2634	3.842293385287	13959
3	2680	3.869973385287	14100
3	2690	3.883813385287	14241
3	2697	3.897653385287	14382
3	2725	3.911493385287	14523
3	2735	3.925333385287	14664
3	2745	3.939173385287	14805
3	2764	3.953013385287	14946
3	2774	3.966853385287	15087
3	2922	4.378453385287	15228
3	2932	4.392293385287	15369
3	3584	5.528453385287	15510
3	3594	5.542293385287	15651
3	3610	5.556133385287	15792
3	3618	5.583813385287	15933
3	3628	5.597653385287	16074
3	3656	5.611493385287	16215
3	3663	5.625333385287	16356
3	3673	5.639173385287	16497
3	3692	5.653013385287	16638
3	3702	5.666853385287	16779
3	3712	5.680693385287	16920
3	3722	5.694533385287	17061
3	3750	5.708373385287	17202
3	3760	5.722213385287	17343
3	3770	5.736053385287	17484
3	3780	5.749893385287	17625
3	3799	5.763733385287	17766
3	3809	5.777573385287	17907
3	3819	5.791413385287	18048
3	3847	5.805253385287	18189
3	3857	5.819093385287	18330
3	3867	5.832933385287	18471
3	3874	5.846773385287	18612
3	3893	5.860613385287	18753
3	3903	5.874453385287	18894
3	3913	5.888293385287	19035
3	3941	5.902133385287	19176
3	3951	5.915973385287	19317
3	3961	5.929813385287	19458
3	3971	5.943653385287	19599
3	3991	5.971333385287	19740
3	4001	5.985173385287	19881
3	4011	5.999013385287	20022
3	4050	6.012853385287	20163
3	4060	6.026693385287	20304
3	4067	6.040533385287	20445
3	4099	6.082053385287	20586
3	4109	6.095893385287	20727
3	4137	6.109733385287	20868
3	4147	6.123573385287	21009
3	4157	6.137413385287	21150
3	4176	6.151253385287	21291
3	4186	6.165093385287	21432
3	4196	6.178933385287	21573
3	4206	6.192773385287	21714
3	4234	6.206613385287	21855
3	4244	6.220453385287	21996
3	4254	6.234293385287	22137
3	4264	6.248133385287	22278
3	4283	6.261973385287	22419
3	4293	6.275813385287	22560
3	4303	6.289653385287	22701
3	4331	6.303493385287	22842
3	4341	6.317333385287	22983
3	4351	6.331173385287	23124
3	4361	6.345013385287	23265
3	4380	6.358853385287	23406
3	4390	6.372693385287	23547
3	4419	6.400373385287	23688
3	4429	6.414213385287	23829
3	4439	6.428053385287	23970
3	4449	6.441893385287	24111
3	4468	6.455733385287	24252
3	4478	6.469573385287	24393
3	4488	6.483413385287	24534
3	4498	6.497253385287	24675
3	4526	6.511093385287	24816
3	4533	6.524933385287	24957
3	4543	6.538773385287	25098
3	4564	6.552613385287	25239
3	4571	6.566453385287	25380
3	4581	6.580293385287	25521
3	4591	6.594133385287	25662
3	4618	6.607973385287	25803
3	4628	6.621813385287	25944
3	4638	6.635653385287	26085
3	4648	6.649493385287	26226
3	4667	6.663333385287	26367
3	4677	6.677173385287	26508
3	4687	6.691013385287	26649
3	4715	6.704853385287	26790
3	4725	6.718693385287	26931
3	4733	6.746373385287	27072
3	4752	6.760213385287	27213
3	4762	6.774053385287	27354
3	4772	6.787893385287	27495
3	4800	6.801733385287	27636
3	4810	6.815573385287	27777
3	4820	6.829413385287	27918
3	4830	6.843253385287	28059
3	4849	6.857093385287	28200
3	4859	6.870933385287	28341
3	4869	6.884773385287	28482
3	4879	6.898613385287	28623
3	4972	6.965242578373	28764
3	4982	6.979082578373	28905
3	4992	6.992922578373	29046
3	5021	7.020602578373	29187
3	5031	7.034442578373	29328
3	5041	7.048282578373	29469
3	5078	7.062122578373	29610
3	5088	7.075962578373	29751
3	5098	7.089802578373	29892
3	5126	7.103642578373	30033
3	5136	7.117482578373	30174
3	5146	7.131322578373	30315
3	5166	7.159002578373	30456
3	5232	7.238133385287	30597
3	5251	7.251973385287	30738

