version 2
run A1-0-20190925-18:16:30-17485
attr configname A1
attr datetime 20190925-18:16:30
attr experiment A1
attr inifile SimV2.ini
attr iterationvars ""
attr iterationvarsf ""
attr measurement ""
attr network NetworkTormV2
attr processid 17485
attr repetition 0
attr replication #0
attr resultdir results
attr runnumber 0
attr seedset 0
param **.mobility.traceFile "\"paths/A.movements\""
param **.numNodes 3
param **.wirelessIfc.wirelessRange 40m
param **.bluetoothIfc.wirelessRange 40m
param **.numNodes 2
param **.application.usedRNG 1
param **.application.dataGenerationInterval 1ms
param **.application.dataSizeInBytes 10
param **.application.ttl 999999s
param **application.destinationAddr "\"Wf:00:00:00:00:02\""
param **application.destinationBTAddr "\"Bt:00:00:00:00:02\""
param **application.nodesThatGen true
param **application.nodesGenMsg "\"0\""
param **application.startMultipleMsg true
param **application.numMultipleMsg 100
param **application.hopsListSize 50
param **.application.endGeneratingMsg 999999s
param **.routingLayer "\"RoutingLQE\""
param **.routing.maximumCacheSize 5000byte
param **.routing.maximumHopCount 25
param **.routing.useTTL false
param **.routing.waitBFsend 0.5
param **.routing.max_age 999999s
param **.routing.gateway_list "\"Wf:00:00:00:00:02;0|.\""
param **.routing.actual_gateway "\"Wf:00:00:00:00:02\""
param **.neighboring.antiEntropyInterval 500ms
param **.neighboring.maximumRandomBackoffDuration 1s
param **.neighboring.delayPerDataMsg 0.1
param **neighboring.usedRNG 2
param **.neighboring.GWAddr "\"Wf:00:00:00:00:02\""
param **.neighboring.sendWifiFirst true
param **.neighboring.maxLengthGraph 20
param **.neighboring.max_age 999999s
param **.neighboring.max_absent_time 1s
param **.wirelessIfc.wirelessRange 15m
param **.wirelessIfc.neighbourScanInterval 50ms
param **.wirelessIfc.bandwidthBitRate 100000bps
param **.wirelessIfc.wirelessHeaderSize 32byte
param **.wirelessIfc.minSSI -90
param **.wirelessIfc.limitQueueTime 400ms
param **.wirelessIfc.my_limit_rate 0bps
param **.bluetoothIfc.wirelessRange 15m
param **.bluetoothIfc.neighbourScanInterval 100ms
param **.bluetoothIfc.bandwidthBitRate 100000bps
param **.bluetoothIfc.wirelessHeaderSize 16byte
param **.bluetoothIfc.minSSI -90
param **.mobilityType "\"BonnMotionMobility\""
param **.mobility.traceFile "\"paths/Moves2.movements\""
param **.mobility.is3D false
param **.mobility.nodeId -1

vector 0 NetworkTormV2 neighbourhoodSize:vector ETV
attr source neighbourhoodSize
vector 1 NetworkTormV2 deliveryRatio:vector ETV
attr source sum(totalDataBytesReceived)/sum(totalDataBytesReceivableByAllNodes)
vector 2 NetworkTormV2 dataBytesReceivedSum:vector ETV
attr source sum(dataBytesReceived)
vector 3 NetworkTormV2 totalBytesReceivedSum:vector ETV
attr source sum(totalBytesReceived)
0	10	0.05	1
0	11	0.05	2
0	12	0.05	1
0	20	0.1	1
0	21	0.1	2
0	22	0.1	1
0	23	0.1	1
0	24	0.1	2
0	25	0.1	1
0	137	0.15	1
0	138	0.15	2
0	139	0.15	1
0	246	0.2	1
0	247	0.2	2
0	248	0.2	1
0	249	0.2	1
0	250	0.2	2
0	251	0.2	1
0	264	0.25	1
0	265	0.25	2
0	266	0.25	1
0	273	0.3	1
0	274	0.3	2
0	275	0.3	1
0	276	0.3	1
0	277	0.3	2
0	278	0.3	1
0	291	0.35	1
0	292	0.35	2
0	293	0.35	1
0	300	0.4	1
0	301	0.4	2
0	302	0.4	1
0	303	0.4	1
0	304	0.4	2
0	305	0.4	1
0	318	0.45	1
0	319	0.45	2
0	320	0.45	1
0	327	0.5	1
0	328	0.5	2
0	329	0.5	1
0	330	0.5	1
0	331	0.5	2
0	332	0.5	1
0	345	0.55	1
0	346	0.55	2
0	347	0.55	1
0	354	0.6	1
0	355	0.6	2
0	356	0.6	1
0	357	0.6	1
0	358	0.6	2
0	359	0.6	1
0	372	0.65	1
0	373	0.65	2
0	374	0.65	1
0	381	0.7	1
0	382	0.7	2
0	383	0.7	1
0	384	0.7	1
0	385	0.7	2
0	386	0.7	1
0	399	0.75	1
0	400	0.75	2
0	401	0.75	1
0	408	0.8	1
0	409	0.8	2
0	410	0.8	1
0	411	0.8	1
0	412	0.8	2
0	413	0.8	1
0	426	0.85	1
0	427	0.85	2
0	428	0.85	1
0	435	0.9	1
0	436	0.9	2
0	437	0.9	1
0	438	0.9	1
0	439	0.9	2
0	440	0.9	1
0	453	0.95	1
0	454	0.95	2
0	455	0.95	1
0	462	1	1
0	463	1	2
0	464	1	1
0	465	1	1
0	466	1	2
0	467	1	1
0	480	1.05	1
0	481	1.05	2
0	482	1.05	1
0	489	1.1	1
0	490	1.1	2
0	491	1.1	1
0	492	1.1	1
0	493	1.1	2
0	494	1.1	1
0	563	1.15	1
0	564	1.15	2
0	565	1.15	1
0	572	1.2	1
0	573	1.2	2
0	574	1.2	1
0	575	1.2	1
0	576	1.2	2
0	577	1.2	1
0	590	1.25	1
0	591	1.25	2
0	592	1.25	1
0	599	1.3	1
0	600	1.3	2
0	601	1.3	1
0	602	1.3	1
0	603	1.3	2
0	604	1.3	1
0	617	1.35	1
0	618	1.35	2
0	619	1.35	1
0	626	1.4	1
0	627	1.4	2
0	628	1.4	1
0	629	1.4	1
0	630	1.4	2
0	631	1.4	1
0	644	1.45	1
0	645	1.45	2
0	646	1.45	1
0	653	1.5	1
0	654	1.5	2
0	655	1.5	1
0	656	1.5	1
0	657	1.5	2
0	658	1.5	1
0	671	1.55	1
0	672	1.55	2
0	673	1.55	1
0	680	1.6	1
0	681	1.6	2
0	682	1.6	1
0	683	1.6	1
0	684	1.6	2
0	685	1.6	1
0	698	1.65	1
0	699	1.65	2
0	700	1.65	1
0	973	1.7	1
0	974	1.7	2
0	975	1.7	1
0	976	1.7	1
0	977	1.7	2
0	978	1.7	1
0	1031	1.75	1
0	1032	1.75	2
0	1033	1.75	1
0	1076	1.8	1
0	1077	1.8	2
0	1078	1.8	1
0	1079	1.8	1
0	1080	1.8	2
0	1081	1.8	1
0	1128	1.85	1
0	1129	1.85	2
0	1130	1.85	1
0	1168	1.9	1
0	1169	1.9	2
0	1170	1.9	1
0	1171	1.9	1
0	1172	1.9	2
0	1173	1.9	1
0	1216	1.95	1
0	1217	1.95	2
0	1218	1.95	1
0	1262	2	1
0	1263	2	2
0	1264	2	1
0	1265	2	1
0	1266	2	2
0	1267	2	1
0	1316	2.05	1
0	1317	2.05	2
0	1318	2.05	1
0	1350	2.1	1
0	1351	2.1	2
0	1352	2.1	1
0	1353	2.1	1
0	1354	2.1	2
0	1355	2.1	1
0	1408	2.15	1
0	1409	2.15	2
0	1410	2.15	1
0	1448	2.2	1
0	1449	2.2	2
0	1450	2.2	1
0	1451	2.2	1
0	1452	2.2	2
0	1453	2.2	1
0	1535	2.25	1
0	1536	2.25	2
0	1537	2.25	1
0	1581	2.3	1
0	1582	2.3	2
0	1583	2.3	1
0	1584	2.3	1
0	1585	2.3	2
0	1586	2.3	1
0	1629	2.35	1
0	1630	2.35	2
0	1631	2.35	1
0	1678	2.4	1
0	1679	2.4	2
0	1680	2.4	1
0	1681	2.4	1
0	1682	2.4	2
0	1683	2.4	1
0	1729	2.45	1
0	1730	2.45	2
0	1731	2.45	1
0	1769	2.5	1
0	1770	2.5	2
0	1771	2.5	1
0	1772	2.5	1
0	1773	2.5	2
0	1774	2.5	1
0	1827	2.55	1
0	1828	2.55	2
0	1829	2.55	1
0	1866	2.6	1
0	1867	2.6	2
0	1868	2.6	1
0	1869	2.6	1
0	1870	2.6	2
0	1871	2.6	1
0	1921	2.65	1
0	1922	2.65	2
0	1923	2.65	1
0	1966	2.7	1
0	1967	2.7	2
0	1968	2.7	1
0	1969	2.7	1
0	1970	2.7	2
0	1971	2.7	1
0	2018	2.75	1
0	2019	2.75	2
0	2020	2.75	1
0	2095	2.8	1
0	2096	2.8	2
0	2097	2.8	1
0	2098	2.8	1
0	2099	2.8	2
0	2100	2.8	1
0	2134	2.85	1
0	2135	2.85	2
0	2136	2.85	1
0	2183	2.9	1
0	2184	2.9	2
0	2185	2.9	1
0	2186	2.9	1
0	2187	2.9	2
0	2188	2.9	1
0	2237	2.95	1
0	2238	2.95	2
0	2239	2.95	1
0	2280	3	1
0	2281	3	2
0	2282	3	1
0	2283	3	1
0	2284	3	2
0	2285	3	1
0	2335	3.05	1
0	2336	3.05	2
0	2337	3.05	1
0	2352	3.1	1
0	2353	3.1	2
0	2354	3.1	1
0	2355	3.1	1
0	2356	3.1	2
0	2357	3.1	1
0	2370	3.15	1
0	2371	3.15	2
0	2372	3.15	1
0	2379	3.2	1
0	2380	3.2	2
0	2381	3.2	1
0	2382	3.2	1
0	2383	3.2	2
0	2384	3.2	1
0	2397	3.25	1
0	2398	3.25	2
0	2399	3.25	1
0	2406	3.3	1
0	2407	3.3	2
0	2408	3.3	1
0	2409	3.3	1
0	2410	3.3	2
0	2411	3.3	1
0	2452	3.35	1
0	2453	3.35	2
0	2454	3.35	1
0	2461	3.4	1
0	2462	3.4	2
0	2463	3.4	1
0	2464	3.4	1
0	2465	3.4	2
0	2466	3.4	1
0	2479	3.45	1
0	2480	3.45	2
0	2481	3.45	1
0	2488	3.5	1
0	2489	3.5	2
0	2490	3.5	1
0	2491	3.5	1
0	2492	3.5	2
0	2493	3.5	1
0	2506	3.55	1
0	2507	3.55	2
0	2508	3.55	1
0	2515	3.6	1
0	2516	3.6	2
0	2517	3.6	1
0	2518	3.6	1
0	2519	3.6	2
0	2520	3.6	1
0	2533	3.65	1
0	2534	3.65	2
0	2535	3.65	1
0	2542	3.7	1
0	2543	3.7	2
0	2544	3.7	1
0	2545	3.7	1
0	2546	3.7	2
0	2547	3.7	1
0	2560	3.75	1
0	2561	3.75	2
0	2562	3.75	1
0	2569	3.8	1
0	2570	3.8	2
0	2571	3.8	1
0	2572	3.8	1
0	2573	3.8	2
0	2574	3.8	1
0	2657	3.85	1
0	2658	3.85	2
0	2659	3.85	1
0	2718	3.9	1
0	2719	3.9	2
0	2720	3.9	1
0	2721	3.9	1
0	2722	3.9	2
0	2723	3.9	1
0	2770	3.95	1
0	2771	3.95	2
0	2772	3.95	1
0	2799	4	1
0	2800	4	2
0	2801	4	1
0	2802	4	1
0	2803	4	2
0	2804	4	1
0	2817	4.05	1
0	2818	4.05	2
0	2819	4.05	1
0	2826	4.1	1
0	2827	4.1	2
0	2828	4.1	1
0	2829	4.1	1
0	2830	4.1	2
0	2831	4.1	1
0	2844	4.15	1
0	2845	4.15	2
0	2846	4.15	1
0	2853	4.2	1
0	2854	4.2	2
0	2855	4.2	1
0	2856	4.2	1
0	2857	4.2	2
0	2858	4.2	1
0	2871	4.25	1
0	2872	4.25	2
0	2873	4.25	1
0	2880	4.3	1
0	2881	4.3	2
0	2882	4.3	1
0	2883	4.3	1
0	2884	4.3	2
0	2885	4.3	1
0	2898	4.35	1
0	2899	4.35	2
0	2900	4.35	1
0	2959	4.4	1
0	2960	4.4	2
0	2961	4.4	1
0	2962	4.4	1
0	2963	4.4	2
0	2964	4.4	1
0	3005	4.45	1
0	3006	4.45	2
0	3007	4.45	1
0	3014	4.5	1
0	3015	4.5	2
0	3016	4.5	1
0	3017	4.5	1
0	3018	4.5	2
0	3019	4.5	1
0	3032	4.55	1
0	3033	4.55	2
0	3034	4.55	1
0	3041	4.6	1
0	3042	4.6	2
0	3043	4.6	1
0	3044	4.6	1
0	3045	4.6	2
0	3046	4.6	1
0	3059	4.65	1
0	3060	4.65	2
0	3061	4.65	1
0	3068	4.7	1
0	3069	4.7	2
0	3070	4.7	1
0	3071	4.7	1
0	3072	4.7	2
0	3073	4.7	1
0	3086	4.75	1
0	3087	4.75	2
0	3088	4.75	1
0	3095	4.8	1
0	3096	4.8	2
0	3097	4.8	1
0	3098	4.8	1
0	3099	4.8	2
0	3100	4.8	1
0	3113	4.85	1
0	3114	4.85	2
0	3115	4.85	1
0	3122	4.9	1
0	3123	4.9	2
0	3124	4.9	1
0	3125	4.9	1
0	3126	4.9	2
0	3127	4.9	1
0	3168	4.95	1
0	3169	4.95	2
0	3170	4.95	1
0	3201	5	1
0	3202	5	2
0	3203	5	1
0	3204	5	1
0	3205	5	2
0	3206	5	1
0	3219	5.05	1
0	3220	5.05	2
0	3221	5.05	1
0	3228	5.1	1
0	3229	5.1	2
0	3230	5.1	1
0	3231	5.1	1
0	3232	5.1	2
0	3233	5.1	1
0	3246	5.15	1
0	3247	5.15	2
0	3248	5.15	1
0	3255	5.2	1
0	3256	5.2	2
0	3257	5.2	1
0	3258	5.2	1
0	3259	5.2	2
0	3260	5.2	1
0	3273	5.25	1
0	3274	5.25	2
0	3275	5.25	1
0	3282	5.3	1
0	3283	5.3	2
0	3284	5.3	1
0	3285	5.3	1
0	3286	5.3	2
0	3287	5.3	1
0	3300	5.35	1
0	3301	5.35	2
0	3302	5.35	1
0	3309	5.4	1
0	3310	5.4	2
0	3311	5.4	1
0	3312	5.4	1
0	3313	5.4	2
0	3314	5.4	1
0	3327	5.45	1
0	3328	5.45	2
0	3329	5.45	1
0	3364	5.5	1
0	3365	5.5	2
0	3366	5.5	1
0	3367	5.5	1
0	3368	5.5	2
0	3369	5.5	1
0	3627	5.55	1
0	3628	5.55	2
0	3629	5.55	1
0	3660	5.6	1
0	3661	5.6	2
0	3662	5.6	1
0	3663	5.6	1
0	3664	5.6	2
0	3665	5.6	1
0	3709	5.65	1
0	3710	5.65	2
0	3711	5.65	1
0	3758	5.7	1
0	3759	5.7	2
0	3760	5.7	1
0	3761	5.7	1
0	3762	5.7	2
0	3763	5.7	1
0	3812	5.75	1
0	3813	5.75	2
0	3814	5.75	1
0	3855	5.8	1
0	3856	5.8	2
0	3857	5.8	1
0	3858	5.8	1
0	3859	5.8	2
0	3860	5.8	1
0	3910	5.85	1
0	3911	5.85	2
0	3912	5.85	1
0	3949	5.9	1
0	3950	5.9	2
0	3951	5.9	1
0	3952	5.9	1
0	3953	5.9	2
0	3954	5.9	1
0	4007	5.95	1
0	4008	5.95	2
0	4009	5.95	1
0	4043	6	1
0	4044	6	2
0	4045	6	1
0	4046	6	1
0	4047	6	2
0	4048	6	1
0	4103	6.05	1
0	4104	6.05	2
0	4105	6.05	1
0	4145	6.1	1
0	4146	6.1	2
0	4147	6.1	1
0	4148	6.1	1
0	4149	6.1	2
0	4150	6.1	1
0	4193	6.15	1
0	4194	6.15	2
0	4195	6.15	1
0	4242	6.2	1
0	4243	6.2	2
0	4244	6.2	1
0	4245	6.2	1
0	4246	6.2	2
0	4247	6.2	1
0	4296	6.25	1
0	4297	6.25	2
0	4298	6.25	1
0	4339	6.3	1
0	4340	6.3	2
0	4341	6.3	1
0	4342	6.3	1
0	4343	6.3	2
0	4344	6.3	1
0	4397	6.35	1
0	4398	6.35	2
0	4399	6.35	1
0	4427	6.4	1
0	4428	6.4	2
0	4429	6.4	1
0	4430	6.4	1
0	4431	6.4	2
0	4432	6.4	1
0	4485	6.45	1
0	4486	6.45	2
0	4487	6.45	1
0	4534	6.5	1
0	4535	6.5	2
0	4536	6.5	1
0	4537	6.5	1
0	4538	6.5	2
0	4539	6.5	1
0	4579	6.55	1
0	4580	6.55	2
0	4581	6.55	1
0	4624	6.6	1
0	4625	6.6	2
0	4626	6.6	1
0	4627	6.6	1
0	4628	6.6	2
0	4629	6.6	1
0	4680	6.65	1
0	4681	6.65	2
0	4682	6.65	1
0	4723	6.7	1
0	4724	6.7	2
0	4725	6.7	1
0	4726	6.7	1
0	4727	6.7	2
0	4728	6.7	1
0	4769	6.75	1
0	4770	6.75	2
0	4771	6.75	1
0	4808	6.8	1
0	4809	6.8	2
0	4810	6.8	1
0	4811	6.8	1
0	4812	6.8	2
0	4813	6.8	1
0	4866	6.85	1
0	4867	6.85	2
0	4868	6.85	1
0	4911	6.9	1
0	4912	6.9	2
0	4913	6.9	1
0	4914	6.9	1
0	4915	6.9	2
0	4916	6.9	1
0	4956	6.95	1
0	4957	6.95	2
0	4958	6.95	1
0	5030	7	1
0	5031	7	2
0	5032	7	1
0	5033	7	1
0	5034	7	2
0	5035	7	1
0	5075	7.05	1
0	5076	7.05	2
0	5077	7.05	1
0	5136	7.1	1
0	5137	7.1	2
0	5138	7.1	1
0	5139	7.1	1
0	5140	7.1	2
0	5141	7.1	1
0	5185	7.15	1
0	5186	7.15	2
0	5187	7.15	1
0	5214	7.2	1
0	5215	7.2	2
0	5216	7.2	1
0	5217	7.2	1
0	5218	7.2	2
0	5219	7.2	1
0	5274	7.25	1
0	5275	7.25	2
0	5276	7.25	1
0	5293	7.3	1
0	5294	7.3	2
0	5295	7.3	1
0	5296	7.3	1
0	5297	7.3	2
0	5298	7.3	1
0	5311	7.35	1
0	5312	7.35	2
0	5313	7.35	1
0	5320	7.4	1
0	5321	7.4	2
0	5322	7.4	1
0	5323	7.4	1
0	5324	7.4	2
0	5325	7.4	1
0	5338	7.45	1
0	5339	7.45	2
0	5340	7.45	1
0	5347	7.5	1
0	5348	7.5	2
0	5349	7.5	1
0	5350	7.5	1
0	5351	7.5	2
0	5352	7.5	1
0	5365	7.55	1
0	5366	7.55	2
0	5367	7.55	1
0	5374	7.6	1
0	5375	7.6	2
0	5376	7.6	1
0	5377	7.6	1
0	5378	7.6	2
0	5379	7.6	1
0	5420	7.65	1
0	5421	7.65	2
0	5422	7.65	1
0	5429	7.7	1
0	5430	7.7	2
0	5431	7.7	1
0	5432	7.7	1
0	5433	7.7	2
0	5434	7.7	1
0	5447	7.75	1
0	5448	7.75	2
0	5449	7.75	1
0	5484	7.8	1
0	5485	7.8	2
0	5486	7.8	1
0	5487	7.8	1
0	5488	7.8	2
0	5489	7.8	1
0	5502	7.85	1
0	5503	7.85	2
0	5504	7.85	1
0	5511	7.9	1
0	5512	7.9	2
0	5513	7.9	1
0	5514	7.9	1
0	5515	7.9	2
0	5516	7.9	1
0	5529	7.95	1
0	5530	7.95	2
0	5531	7.95	1
0	5538	8	1
0	5539	8	2
0	5540	8	1
0	5541	8	1
0	5542	8	2
0	5543	8	1
0	5556	8.05	1
0	5557	8.05	2
0	5558	8.05	1
0	5565	8.1	1
0	5566	8.1	2
0	5567	8.1	1
0	5568	8.1	1
0	5569	8.1	2
0	5570	8.1	1
0	5583	8.15	1
0	5584	8.15	2
0	5585	8.15	1
0	5620	8.2	1
0	5621	8.2	2
0	5622	8.2	1
0	5623	8.2	1
0	5624	8.2	2
0	5625	8.2	1
0	5638	8.25	1
0	5639	8.25	2
0	5640	8.25	1
0	5647	8.3	1
0	5648	8.3	2
0	5649	8.3	1
0	5650	8.3	1
0	5651	8.3	2
0	5652	8.3	1
0	5693	8.35	1
0	5694	8.35	2
0	5695	8.35	1
0	5702	8.4	1
0	5703	8.4	2
0	5704	8.4	1
0	5705	8.4	1
0	5706	8.4	2
0	5707	8.4	1
0	5720	8.45	1
0	5721	8.45	2
0	5722	8.45	1
0	5729	8.5	1
0	5730	8.5	2
0	5731	8.5	1
0	5732	8.5	1
0	5733	8.5	2
0	5734	8.5	1
0	5747	8.55	1
0	5748	8.55	2
0	5749	8.55	1
0	5756	8.6	1
0	5757	8.6	2
0	5758	8.6	1
0	5759	8.6	1
0	5760	8.6	2
0	5761	8.6	1
0	5774	8.65	1
0	5775	8.65	2
0	5776	8.65	1
0	5783	8.7	1
0	5784	8.7	2
0	5785	8.7	1
0	5786	8.7	1
0	5787	8.7	2
0	5788	8.7	1
0	5829	8.75	1
0	5830	8.75	2
0	5831	8.75	1
0	5838	8.8	1
0	5839	8.8	2
0	5840	8.8	1
0	5841	8.8	1
0	5842	8.8	2
0	5843	8.8	1
0	5856	8.85	1
0	5857	8.85	2
0	5858	8.85	1
0	5893	8.9	1
0	5894	8.9	2
0	5895	8.9	1
0	5896	8.9	1
0	5897	8.9	2
0	5898	8.9	1
0	5911	8.95	1
0	5912	8.95	2
0	5913	8.95	1
0	5920	9	1
0	5921	9	2
0	5922	9	1
0	5923	9	1
0	5924	9	2
0	5925	9	1
0	5938	9.05	1
0	5939	9.05	2
0	5940	9.05	1
0	5947	9.1	1
0	5948	9.1	2
0	5949	9.1	1
0	5950	9.1	1
0	5951	9.1	2
0	5952	9.1	1
0	5965	9.15	1
0	5966	9.15	2
0	5967	9.15	1
0	5974	9.2	1
0	5975	9.2	2
0	5976	9.2	1
0	5977	9.2	1
0	5978	9.2	2
0	5979	9.2	1
0	5992	9.25	1
0	5993	9.25	2
0	5994	9.25	1
0	6029	9.3	1
0	6030	9.3	2
0	6031	9.3	1
0	6032	9.3	1
0	6033	9.3	2
0	6034	9.3	1
0	6047	9.35	1
0	6048	9.35	2
0	6049	9.35	1
0	6056	9.4	1
0	6057	9.4	2
0	6058	9.4	1
0	6059	9.4	1
0	6060	9.4	2
0	6061	9.4	1
0	6102	9.45	1
0	6103	9.45	2
0	6104	9.45	1
0	6111	9.5	1
0	6112	9.5	2
0	6113	9.5	1
0	6114	9.5	1
0	6115	9.5	2
0	6116	9.5	1
0	6129	9.55	1
0	6130	9.55	2
0	6131	9.55	1
0	6138	9.6	1
0	6139	9.6	2
0	6140	9.6	1
0	6141	9.6	1
0	6142	9.6	2
0	6143	9.6	1
0	6156	9.65	1
0	6157	9.65	2
0	6158	9.65	1
0	6165	9.7	1
0	6166	9.7	2
0	6167	9.7	1
0	6168	9.7	1
0	6169	9.7	2
0	6170	9.7	1
0	6183	9.75	1
0	6184	9.75	2
0	6185	9.75	1
0	6192	9.8	1
0	6193	9.8	2
0	6194	9.8	1
0	6195	9.8	1
0	6196	9.8	2
0	6197	9.8	1
0	6238	9.85	1
0	6239	9.85	2
0	6240	9.85	1
0	6247	9.9	1
0	6248	9.9	2
0	6249	9.9	1
0	6250	9.9	1
0	6251	9.9	2
0	6252	9.9	1
0	6265	9.95	1
0	6266	9.95	2
0	6267	9.95	1
0	6302	10	1
0	6303	10	2
0	6304	10	1
0	6305	10	1
0	6306	10	2
0	6307	10	1
0	6320	10.05	1
0	6321	10.05	2
0	6322	10.05	1
0	6329	10.1	1
0	6330	10.1	2
0	6331	10.1	1
0	6332	10.1	1
0	6333	10.1	2
0	6334	10.1	1
0	6347	10.15	1
0	6348	10.15	2
0	6349	10.15	1
0	6356	10.2	1
0	6357	10.2	2
0	6358	10.2	1
0	6359	10.2	1
0	6360	10.2	2
0	6361	10.2	1
0	6374	10.25	1
0	6375	10.25	2
0	6376	10.25	1
0	6383	10.3	1
0	6384	10.3	2
0	6385	10.3	1
0	6386	10.3	1
0	6387	10.3	2
0	6388	10.3	1
0	6401	10.35	1
0	6402	10.35	2
0	6403	10.35	1
0	6438	10.4	1
0	6439	10.4	2
0	6440	10.4	1
0	6441	10.4	1
0	6442	10.4	2
0	6443	10.4	1
0	6456	10.45	1
0	6457	10.45	2
0	6458	10.45	1
0	6465	10.5	1
0	6466	10.5	2
0	6467	10.5	1
0	6468	10.5	1
0	6469	10.5	2
0	6470	10.5	1
0	6511	10.55	1
0	6512	10.55	2
0	6513	10.55	1
0	6520	10.6	1
0	6521	10.6	2
0	6522	10.6	1
0	6523	10.6	1
0	6524	10.6	2
0	6525	10.6	1
0	6538	10.65	1
0	6539	10.65	2
0	6540	10.65	1
0	6547	10.7	1
0	6548	10.7	2
0	6549	10.7	1
0	6550	10.7	1
0	6551	10.7	2
0	6552	10.7	1
0	6565	10.75	1
0	6566	10.75	2
0	6567	10.75	1
0	6574	10.8	1
0	6575	10.8	2
0	6576	10.8	1
0	6577	10.8	1
0	6578	10.8	2
0	6579	10.8	1
0	6592	10.85	1
0	6593	10.85	2
0	6594	10.85	1
0	6601	10.9	1
0	6602	10.9	2
0	6603	10.9	1
0	6604	10.9	1
0	6605	10.9	2
0	6606	10.9	1
0	6647	10.95	1
0	6648	10.95	2
0	6649	10.95	1
0	6656	11	1
0	6657	11	2
0	6658	11	1
0	6659	11	1
0	6660	11	2
0	6661	11	1
0	6674	11.05	1
0	6675	11.05	2
0	6676	11.05	1
0	6711	11.1	1
0	6712	11.1	2
0	6713	11.1	1
0	6714	11.1	1
0	6715	11.1	2
0	6716	11.1	1
0	6729	11.15	1
0	6730	11.15	2
0	6731	11.15	1
0	6738	11.2	1
0	6739	11.2	2
0	6740	11.2	1
0	6741	11.2	1
0	6742	11.2	2
0	6743	11.2	1
0	6756	11.25	1
0	6757	11.25	2
0	6758	11.25	1
0	6765	11.3	1
0	6766	11.3	2
0	6767	11.3	1
0	6768	11.3	1
0	6769	11.3	2
0	6770	11.3	1
0	6783	11.35	1
0	6784	11.35	2
0	6785	11.35	1
0	6792	11.4	1
0	6793	11.4	2
0	6794	11.4	1
0	6795	11.4	1
0	6796	11.4	2
0	6797	11.4	1
0	6810	11.45	1
0	6811	11.45	2
0	6812	11.45	1
0	6847	11.5	1
0	6848	11.5	2
0	6849	11.5	1
0	6850	11.5	1
0	6851	11.5	2
0	6852	11.5	1
0	6865	11.55	1
0	6866	11.55	2
0	6867	11.55	1
0	6874	11.6	1
0	6875	11.6	2
0	6876	11.6	1
0	6877	11.6	1
0	6878	11.6	2
0	6879	11.6	1
0	6920	11.65	1
0	6921	11.65	2
0	6922	11.65	1
0	6929	11.7	1
0	6930	11.7	2
0	6931	11.7	1
0	6932	11.7	1
0	6933	11.7	2
0	6934	11.7	1
0	6947	11.75	1
0	6948	11.75	2
0	6949	11.75	1
0	6956	11.8	1
0	6957	11.8	2
0	6958	11.8	1
0	6959	11.8	1
0	6960	11.8	2
0	6961	11.8	1
0	6974	11.85	1
0	6975	11.85	2
0	6976	11.85	1
0	6983	11.9	1
0	6984	11.9	2
0	6985	11.9	1
0	6986	11.9	1
0	6987	11.9	2
0	6988	11.9	1
0	7001	11.95	1
0	7002	11.95	2
0	7003	11.95	1
0	7010	12	1
0	7011	12	2
0	7012	12	1
0	7013	12	1
0	7014	12	2
0	7015	12	1
0	7056	12.05	1
0	7057	12.05	2
0	7058	12.05	1
0	7065	12.1	1
0	7066	12.1	2
0	7067	12.1	1
0	7068	12.1	1
0	7069	12.1	2
0	7070	12.1	1
0	7083	12.15	1
0	7084	12.15	2
0	7085	12.15	1
0	7120	12.2	1
0	7121	12.2	2
0	7122	12.2	1
0	7123	12.2	1
0	7124	12.2	2
0	7125	12.2	1
0	7138	12.25	1
0	7139	12.25	2
0	7140	12.25	1
0	7147	12.3	1
0	7148	12.3	2
0	7149	12.3	1
0	7150	12.3	1
0	7151	12.3	2
0	7152	12.3	1
0	7165	12.35	1
0	7166	12.35	2
0	7167	12.35	1
0	7174	12.4	1
0	7175	12.4	2
0	7176	12.4	1
0	7177	12.4	1
0	7178	12.4	2
0	7179	12.4	1
0	7192	12.45	1
0	7193	12.45	2
0	7194	12.45	1
0	7201	12.5	1
0	7202	12.5	2
0	7203	12.5	1
0	7204	12.5	1
0	7205	12.5	2
0	7206	12.5	1
0	7219	12.55	1
0	7220	12.55	2
0	7221	12.55	1
0	7256	12.6	1
0	7257	12.6	2
0	7258	12.6	1
0	7259	12.6	1
0	7260	12.6	2
0	7261	12.6	1
0	7274	12.65	1
0	7275	12.65	2
0	7276	12.65	1
0	7283	12.7	1
0	7284	12.7	2
0	7285	12.7	1
0	7286	12.7	1
0	7287	12.7	2
0	7288	12.7	1
0	7318	12.75	1
0	7319	12.75	2
0	7320	12.75	1
0	7327	12.8	1
0	7328	12.8	2
0	7329	12.8	1
0	7330	12.8	1
0	7331	12.8	2
0	7332	12.8	1
0	7345	12.85	1
0	7346	12.85	2
0	7347	12.85	1
0	7354	12.9	1
0	7355	12.9	2
0	7356	12.9	1
0	7357	12.9	1
0	7358	12.9	2
0	7359	12.9	1
0	7372	12.95	1
0	7373	12.95	2
0	7374	12.95	1
0	7381	13	1
0	7382	13	2
0	7383	13	1
0	7384	13	1
0	7385	13	2
0	7386	13	1
0	7399	13.05	1
0	7400	13.05	2
0	7401	13.05	1
0	7408	13.1	1
0	7409	13.1	2
0	7410	13.1	1
0	7411	13.1	1
0	7412	13.1	2
0	7413	13.1	1
0	7440	13.15	1
0	7441	13.15	2
0	7442	13.15	1
0	7449	13.2	1
0	7450	13.2	2
0	7451	13.2	1
0	7452	13.2	1
0	7453	13.2	2
0	7454	13.2	1
0	7467	13.25	1
0	7468	13.25	2
0	7469	13.25	1
0	7490	13.3	1
0	7491	13.3	2
0	7492	13.3	1
0	7493	13.3	1
0	7494	13.3	2
0	7495	13.3	1
0	7508	13.35	1
0	7509	13.35	2
0	7510	13.35	1
0	7517	13.4	1
0	7518	13.4	2
0	7519	13.4	1
0	7520	13.4	1
0	7521	13.4	2
0	7522	13.4	1
0	7535	13.45	1
0	7536	13.45	2
0	7537	13.45	1
0	7544	13.5	1
0	7545	13.5	2
0	7546	13.5	1
0	7547	13.5	1
0	7548	13.5	2
0	7549	13.5	1
0	7562	13.55	1
0	7563	13.55	2
0	7564	13.55	1
0	7571	13.6	1
0	7572	13.6	2
0	7573	13.6	1
0	7574	13.6	1
0	7575	13.6	2
0	7576	13.6	1
0	7589	13.65	1
0	7590	13.65	2
0	7591	13.65	1
0	7612	13.7	1
0	7613	13.7	2
0	7614	13.7	1
0	7615	13.7	1
0	7616	13.7	2
0	7617	13.7	1
0	7630	13.75	1
0	7631	13.75	2
0	7632	13.75	1
0	7639	13.8	1
0	7640	13.8	2
0	7641	13.8	1
0	7642	13.8	1
0	7643	13.8	2
0	7644	13.8	1
0	7671	13.85	1
0	7672	13.85	2
0	7673	13.85	1
0	7680	13.9	1
0	7681	13.9	2
0	7682	13.9	1
0	7683	13.9	1
0	7684	13.9	2
0	7685	13.9	1
0	7698	13.95	1
0	7699	13.95	2
0	7700	13.95	1
0	7707	14	1
0	7708	14	2
0	7709	14	1
0	7710	14	1
0	7711	14	2
0	7712	14	1
0	7725	14.05	1
0	7726	14.05	2
0	7727	14.05	1
0	7734	14.1	1
0	7735	14.1	2
0	7736	14.1	1
0	7737	14.1	1
0	7738	14.1	2
0	7739	14.1	1
0	7752	14.15	1
0	7753	14.15	2
0	7754	14.15	1
0	7775	14.2	1
0	7776	14.2	2
0	7777	14.2	1
0	7778	14.2	1
0	7779	14.2	2
0	7780	14.2	1
0	7807	14.25	1
0	7808	14.25	2
0	7809	14.25	1
0	7816	14.3	1
0	7817	14.3	2
0	7818	14.3	1
0	7819	14.3	1
0	7820	14.3	2
0	7821	14.3	1
0	7848	14.35	1
0	7849	14.35	2
0	7850	14.35	1
0	7871	14.4	1
0	7872	14.4	2
0	7873	14.4	1
0	7874	14.4	1
0	7875	14.4	2
0	7876	14.4	1
0	7889	14.45	1
0	7890	14.45	2
0	7891	14.45	1
0	7898	14.5	1
0	7899	14.5	2
0	7900	14.5	1
0	7901	14.5	1
0	7902	14.5	2
0	7903	14.5	1
0	7916	14.55	1
0	7917	14.55	2
0	7918	14.55	1
0	7925	14.6	1
0	7926	14.6	2
0	7927	14.6	1
0	7928	14.6	1
0	7929	14.6	2
0	7930	14.6	1
0	7943	14.65	1
0	7944	14.65	2
0	7945	14.65	1
0	7952	14.7	1
0	7953	14.7	2
0	7954	14.7	1
0	7955	14.7	1
0	7956	14.7	2
0	7957	14.7	1
0	7984	14.75	1
0	7985	14.75	2
0	7986	14.75	1
0	8007	14.8	1
0	8008	14.8	2
0	8009	14.8	1
0	8010	14.8	1
0	8011	14.8	2
0	8012	14.8	1
0	8025	14.85	1
0	8026	14.85	2
0	8027	14.85	1
0	8048	14.9	1
0	8049	14.9	2
0	8050	14.9	1
0	8051	14.9	1
0	8052	14.9	2
0	8053	14.9	1
0	8080	14.95	1
0	8081	14.95	2
0	8082	14.95	1
0	8089	15	1
0	8090	15	2
0	8091	15	1
0	8092	15	1
0	8093	15	2
0	8094	15	1
0	8107	15.05	1
0	8108	15.05	2
0	8109	15.05	1
0	8116	15.1	1
0	8117	15.1	2
0	8118	15.1	1
0	8119	15.1	1
0	8120	15.1	2
0	8121	15.1	1
0	8134	15.15	1
0	8135	15.15	2
0	8136	15.15	1
0	8143	15.2	1
0	8144	15.2	2
0	8145	15.2	1
0	8146	15.2	1
0	8147	15.2	2
0	8148	15.2	1
0	8161	15.25	1
0	8162	15.25	2
0	8163	15.25	1
0	8184	15.3	1
0	8185	15.3	2
0	8186	15.3	1
0	8187	15.3	1
0	8188	15.3	2
0	8189	15.3	1
0	8216	15.35	1
0	8217	15.35	2
0	8218	15.35	1
0	8225	15.4	1
0	8226	15.4	2
0	8227	15.4	1
0	8228	15.4	1
0	8229	15.4	2
0	8230	15.4	1
0	8246	15.45	1
0	8247	15.45	2
0	8248	15.45	1
0	8269	15.5	1
0	8270	15.5	2
0	8271	15.5	1
0	8272	15.5	1
0	8273	15.5	2
0	8274	15.5	1
0	8287	15.55	1
0	8288	15.55	2
0	8289	15.55	1
0	8296	15.6	1
0	8297	15.6	2
0	8298	15.6	1
0	8299	15.6	1
0	8300	15.6	2
0	8301	15.6	1
0	8314	15.65	1
0	8315	15.65	2
0	8316	15.65	1
0	8323	15.7	1
0	8324	15.7	2
0	8325	15.7	1
0	8326	15.7	1
0	8327	15.7	2
0	8328	15.7	1
0	8341	15.75	1
0	8342	15.75	2
0	8343	15.75	1
0	8350	15.8	1
0	8351	15.8	2
0	8352	15.8	1
0	8353	15.8	1
0	8354	15.8	2
0	8355	15.8	1
0	8368	15.85	1
0	8369	15.85	2
0	8370	15.85	1
0	8391	15.9	1
0	8392	15.9	2
0	8393	15.9	1
0	8394	15.9	1
0	8395	15.9	2
0	8396	15.9	1
0	8409	15.95	1
0	8410	15.95	2
0	8411	15.95	1
0	8418	16	1
0	8419	16	2
0	8420	16	1
0	8421	16	1
0	8422	16	2
0	8423	16	1
0	8450	16.05	1
0	8451	16.05	2
0	8452	16.05	1
0	8459	16.1	1
0	8460	16.1	2
0	8461	16.1	1
0	8462	16.1	1
0	8463	16.1	2
0	8464	16.1	1
0	8477	16.15	1
0	8478	16.15	2
0	8479	16.15	1
0	8486	16.2	1
0	8487	16.2	2
0	8488	16.2	1
0	8489	16.2	1
0	8490	16.2	2
0	8491	16.2	1
0	8504	16.25	1
0	8505	16.25	2
0	8506	16.25	1
0	8513	16.3	1
0	8514	16.3	2
0	8515	16.3	1
0	8516	16.3	1
0	8517	16.3	2
0	8518	16.3	1
0	8531	16.35	1
0	8532	16.35	2
0	8533	16.35	1
0	8540	16.4	1
0	8541	16.4	2
0	8542	16.4	1
0	8543	16.4	1
0	8544	16.4	2
0	8545	16.4	1
0	8568	16.45	1
0	8569	16.45	2
0	8570	16.45	1
0	8577	16.5	1
0	8578	16.5	2
0	8579	16.5	1
0	8580	16.5	1
0	8581	16.5	2
0	8582	16.5	1
0	8595	16.55	1
0	8596	16.55	2
0	8597	16.55	1
0	8618	16.6	1
0	8619	16.6	2
0	8620	16.6	1
0	8621	16.6	1
0	8622	16.6	2
0	8623	16.6	1
0	8636	16.65	1
0	8637	16.65	2
0	8638	16.65	1
0	8645	16.7	1
0	8646	16.7	2
0	8647	16.7	1
0	8648	16.7	1
0	8649	16.7	2
0	8650	16.7	1
0	8663	16.75	1
0	8664	16.75	2
0	8665	16.75	1
0	8672	16.8	1
0	8673	16.8	2
0	8674	16.8	1
0	8675	16.8	1
0	8676	16.8	2
0	8677	16.8	1
0	8704	16.85	1
0	8705	16.85	2
0	8706	16.85	1
0	8713	16.9	1
0	8714	16.9	2
0	8715	16.9	1
0	8716	16.9	1
0	8717	16.9	2
0	8718	16.9	1
0	8731	16.95	1
0	8732	16.95	2
0	8733	16.95	1
0	8768	17	1
0	8769	17	2
0	8770	17	1
0	8771	17	1
0	8772	17	2
0	8773	17	1
0	8786	17.05	1
0	8787	17.05	2
0	8788	17.05	1
0	8795	17.1	1
0	8796	17.1	2
0	8797	17.1	1
0	8798	17.1	1
0	8799	17.1	2
0	8800	17.1	1
0	8827	17.15	1
0	8828	17.15	2
0	8829	17.15	1
0	8836	17.2	1
0	8837	17.2	2
0	8838	17.2	1
0	8839	17.2	1
0	8840	17.2	2
0	8841	17.2	1
0	8854	17.25	1
0	8855	17.25	2
0	8856	17.25	1
0	8863	17.3	1
0	8864	17.3	2
0	8865	17.3	1
0	8866	17.3	1
0	8867	17.3	2
0	8868	17.3	1
0	8881	17.35	1
0	8882	17.35	2
0	8883	17.35	1
0	8904	17.4	1
0	8905	17.4	2
0	8906	17.4	1
0	8907	17.4	1
0	8908	17.4	2
0	8909	17.4	1
0	8922	17.45	1
0	8923	17.45	2
0	8924	17.45	1
0	8931	17.5	1
0	8932	17.5	2
0	8933	17.5	1
0	8934	17.5	1
0	8935	17.5	2
0	8936	17.5	1
0	8977	17.55	1
0	8978	17.55	2
0	8979	17.55	1
0	8986	17.6	1
0	8987	17.6	2
0	8988	17.6	1
0	8989	17.6	1
0	8990	17.6	2
0	8991	17.6	1
0	9004	17.65	1
0	9005	17.65	2
0	9006	17.65	1
0	9027	17.7	1
0	9028	17.7	2
0	9029	17.7	1
0	9030	17.7	1
0	9031	17.7	2
0	9032	17.7	1
0	9045	17.75	1
0	9046	17.75	2
0	9047	17.75	1
0	9054	17.8	1
0	9055	17.8	2
0	9056	17.8	1
0	9057	17.8	1
0	9058	17.8	2
0	9059	17.8	1
0	9072	17.85	1
0	9073	17.85	2
0	9074	17.85	1
0	9081	17.9	1
0	9082	17.9	2
0	9083	17.9	1
0	9084	17.9	1
0	9085	17.9	2
0	9086	17.9	1
0	9109	17.95	1
0	9110	17.95	2
0	9111	17.95	1
0	9118	18	1
0	9119	18	2
0	9120	18	1
0	9121	18	1
0	9122	18	2
0	9123	18	1
0	9136	18.05	1
0	9137	18.05	2
0	9138	18.05	1
0	9173	18.1	1
0	9174	18.1	2
0	9175	18.1	1
0	9176	18.1	1
0	9177	18.1	2
0	9178	18.1	1
0	9191	18.15	1
0	9192	18.15	2
0	9193	18.15	1
0	9200	18.2	1
0	9201	18.2	2
0	9202	18.2	1
0	9203	18.2	1
0	9204	18.2	2
0	9205	18.2	1
0	9232	18.25	1
0	9233	18.25	2
0	9234	18.25	1
0	9241	18.3	1
0	9242	18.3	2
0	9243	18.3	1
0	9244	18.3	1
0	9245	18.3	2
0	9246	18.3	1
0	9259	18.35	1
0	9260	18.35	2
0	9261	18.35	1
0	9268	18.4	1
0	9269	18.4	2
0	9270	18.4	1
0	9271	18.4	1
0	9272	18.4	2
0	9273	18.4	1
0	9286	18.45	1
0	9287	18.45	2
0	9288	18.45	1
0	9309	18.5	1
0	9310	18.5	2
0	9311	18.5	1
0	9312	18.5	1
0	9313	18.5	2
0	9314	18.5	1
0	9327	18.55	1
0	9328	18.55	2
0	9329	18.55	1
0	9336	18.6	1
0	9337	18.6	2
0	9338	18.6	1
0	9339	18.6	1
0	9340	18.6	2
0	9341	18.6	1
0	9382	18.65	1
0	9383	18.65	2
0	9384	18.65	1
0	9391	18.7	1
0	9392	18.7	2
0	9393	18.7	1
0	9394	18.7	1
0	9395	18.7	2
0	9396	18.7	1
0	9409	18.75	1
0	9410	18.75	2
0	9411	18.75	1
0	9432	18.8	1
0	9433	18.8	2
0	9434	18.8	1
0	9435	18.8	1
0	9436	18.8	2
0	9437	18.8	1
0	9450	18.85	1
0	9451	18.85	2
0	9452	18.85	1
0	9459	18.9	1
0	9460	18.9	2
0	9461	18.9	1
0	9462	18.9	1
0	9463	18.9	2
0	9464	18.9	1
0	9477	18.95	1
0	9478	18.95	2
0	9479	18.95	1
0	9486	19	1
0	9487	19	2
0	9488	19	1
0	9489	19	1
0	9490	19	2
0	9491	19	1
0	9518	19.05	1
0	9519	19.05	2
0	9520	19.05	1
0	9527	19.1	1
0	9528	19.1	2
0	9529	19.1	1
0	9530	19.1	1
0	9531	19.1	2
0	9532	19.1	1
0	9545	19.15	1
0	9546	19.15	2
0	9547	19.15	1
0	9582	19.2	1
0	9583	19.2	2
0	9584	19.2	1
0	9585	19.2	1
0	9586	19.2	2
0	9587	19.2	1
0	9600	19.25	1
0	9601	19.25	2
0	9602	19.25	1
0	9609	19.3	1
0	9610	19.3	2
0	9611	19.3	1
0	9612	19.3	1
0	9613	19.3	2
0	9614	19.3	1
0	9641	19.35	1
0	9642	19.35	2
0	9643	19.35	1
0	9650	19.4	1
0	9651	19.4	2
0	9652	19.4	1
0	9653	19.4	1
0	9654	19.4	2
0	9655	19.4	1
0	9668	19.45	1
0	9669	19.45	2
0	9670	19.45	1
0	9677	19.5	1
0	9678	19.5	2
0	9679	19.5	1
0	9680	19.5	1
0	9681	19.5	2
0	9682	19.5	1
0	9695	19.55	1
0	9696	19.55	2
0	9697	19.55	1
0	9718	19.6	1
0	9719	19.6	2
0	9720	19.6	1
0	9721	19.6	1
0	9722	19.6	2
0	9723	19.6	1
0	9736	19.65	1
0	9737	19.65	2
0	9738	19.65	1
0	9745	19.7	1
0	9746	19.7	2
0	9747	19.7	1
0	9748	19.7	1
0	9749	19.7	2
0	9750	19.7	1
0	9791	19.75	1
0	9792	19.75	2
0	9793	19.75	1
0	9800	19.8	1
0	9801	19.8	2
0	9802	19.8	1
0	9803	19.8	1
0	9804	19.8	2
0	9805	19.8	1
0	9818	19.85	1
0	9819	19.85	2
0	9820	19.85	1
0	9841	19.9	1
0	9842	19.9	2
0	9843	19.9	1
0	9844	19.9	1
0	9845	19.9	2
0	9846	19.9	1
0	9859	19.95	1
0	9860	19.95	2
0	9861	19.95	1
0	9868	20	1
0	9869	20	2
0	9870	20	1
0	9871	20	1
0	9872	20	2
0	9873	20	1
0	9886	20.05	1
0	9887	20.05	2
0	9888	20.05	1
0	9895	20.1	1
0	9896	20.1	2
0	9897	20.1	1
0	9898	20.1	1
0	9899	20.1	2
0	9900	20.1	1
0	9927	20.15	1
0	9928	20.15	2
0	9929	20.15	1
0	9936	20.2	1
0	9937	20.2	2
0	9938	20.2	1
0	9939	20.2	1
0	9940	20.2	2
0	9941	20.2	1
0	9954	20.25	1
0	9955	20.25	2
0	9956	20.25	1
0	9991	20.3	1
0	9992	20.3	2
0	9993	20.3	1
0	9994	20.3	1
0	9995	20.3	2
0	9996	20.3	1
0	10009	20.35	1
0	10010	20.35	2
0	10011	20.35	1
0	10018	20.4	1
0	10019	20.4	2
0	10020	20.4	1
0	10021	20.4	1
0	10022	20.4	2
0	10023	20.4	1
0	10050	20.45	1
0	10051	20.45	2
0	10052	20.45	1
0	10059	20.5	1
0	10060	20.5	2
0	10061	20.5	1
0	10062	20.5	1
0	10063	20.5	2
0	10064	20.5	1
0	10077	20.55	1
0	10078	20.55	2
0	10079	20.55	1
0	10086	20.6	1
0	10087	20.6	2
0	10088	20.6	1
0	10089	20.6	1
0	10090	20.6	2
0	10091	20.6	1
0	10104	20.65	1
0	10105	20.65	2
0	10106	20.65	1
0	10127	20.7	1
0	10128	20.7	2
0	10129	20.7	1
0	10130	20.7	1
0	10131	20.7	2
0	10132	20.7	1
0	10145	20.75	1
0	10146	20.75	2
0	10147	20.75	1
0	10154	20.8	1
0	10155	20.8	2
0	10156	20.8	1
0	10157	20.8	1
0	10158	20.8	2
0	10159	20.8	1
0	10200	20.85	1
0	10201	20.85	2
0	10202	20.85	1
0	10209	20.9	1
0	10210	20.9	2
0	10211	20.9	1
0	10212	20.9	1
0	10213	20.9	2
0	10214	20.9	1
0	10227	20.95	1
0	10228	20.95	2
0	10229	20.95	1
0	10250	21	1
0	10251	21	2
0	10252	21	1
0	10253	21	1
0	10254	21	2
0	10255	21	1
0	10268	21.05	1
0	10269	21.05	2
0	10270	21.05	1
0	10277	21.1	1
0	10278	21.1	2
0	10279	21.1	1
0	10280	21.1	1
0	10281	21.1	2
0	10282	21.1	1
0	10295	21.15	1
0	10296	21.15	2
0	10297	21.15	1
0	10304	21.2	1
0	10305	21.2	2
0	10306	21.2	1
0	10307	21.2	1
0	10308	21.2	2
0	10309	21.2	1
0	10336	21.25	1
0	10337	21.25	2
0	10338	21.25	1
0	10345	21.3	1
0	10346	21.3	2
0	10347	21.3	1
0	10348	21.3	1
0	10349	21.3	2
0	10350	21.3	1
0	10363	21.35	1
0	10364	21.35	2
0	10365	21.35	1
0	10400	21.4	1
0	10401	21.4	2
0	10402	21.4	1
0	10403	21.4	1
0	10404	21.4	2
0	10405	21.4	1
0	10418	21.45	1
0	10419	21.45	2
0	10420	21.45	1
0	10427	21.5	1
0	10428	21.5	2
0	10429	21.5	1
0	10430	21.5	1
0	10431	21.5	2
0	10432	21.5	1
0	10459	21.55	1
0	10460	21.55	2
0	10461	21.55	1
0	10468	21.6	1
0	10469	21.6	2
0	10470	21.6	1
0	10471	21.6	1
0	10472	21.6	2
0	10473	21.6	1
0	10486	21.65	1
0	10487	21.65	2
0	10488	21.65	1
0	10495	21.7	1
0	10496	21.7	2
0	10497	21.7	1
0	10498	21.7	1
0	10499	21.7	2
0	10500	21.7	1
0	10513	21.75	1
0	10514	21.75	2
0	10515	21.75	1
0	10536	21.8	1
0	10537	21.8	2
0	10538	21.8	1
0	10539	21.8	1
0	10540	21.8	2
0	10541	21.8	1
0	10554	21.85	1
0	10555	21.85	2
0	10556	21.85	1
0	10563	21.9	1
0	10564	21.9	2
0	10565	21.9	1
0	10566	21.9	1
0	10567	21.9	2
0	10568	21.9	1
0	10609	21.95	1
0	10610	21.95	2
0	10611	21.95	1
0	10618	22	1
0	10619	22	2
0	10620	22	1
0	10621	22	1
0	10622	22	2
0	10623	22	1
0	10636	22.05	1
0	10637	22.05	2
0	10638	22.05	1
0	10659	22.1	1
0	10660	22.1	2
0	10661	22.1	1
0	10662	22.1	1
0	10663	22.1	2
0	10664	22.1	1
0	10677	22.15	1
0	10678	22.15	2
0	10679	22.15	1
0	10686	22.2	1
0	10687	22.2	2
0	10688	22.2	1
0	10689	22.2	1
0	10690	22.2	2
0	10691	22.2	1
0	10704	22.25	1
0	10705	22.25	2
0	10706	22.25	1
0	10713	22.3	1
0	10714	22.3	2
0	10715	22.3	1
0	10716	22.3	1
0	10717	22.3	2
0	10718	22.3	1
0	10745	22.35	1
0	10746	22.35	2
0	10747	22.35	1
0	10754	22.4	1
0	10755	22.4	2
0	10756	22.4	1
0	10757	22.4	1
0	10758	22.4	2
0	10759	22.4	1
0	10772	22.45	1
0	10773	22.45	2
0	10774	22.45	1
0	10809	22.5	1
0	10810	22.5	2
0	10811	22.5	1
0	10812	22.5	1
0	10813	22.5	2
0	10814	22.5	1
0	10827	22.55	1
0	10828	22.55	2
0	10829	22.55	1
0	10836	22.6	1
0	10837	22.6	2
0	10838	22.6	1
0	10839	22.6	1
0	10840	22.6	2
0	10841	22.6	1
0	10868	22.65	1
0	10869	22.65	2
0	10870	22.65	1
0	10877	22.7	1
0	10878	22.7	2
0	10879	22.7	1
0	10880	22.7	1
0	10881	22.7	2
0	10882	22.7	1
0	10895	22.75	1
0	10896	22.75	2
0	10897	22.75	1
0	10904	22.8	1
0	10905	22.8	2
0	10906	22.8	1
0	10907	22.8	1
0	10908	22.8	2
0	10909	22.8	1
0	10922	22.85	1
0	10923	22.85	2
0	10924	22.85	1
0	10945	22.9	1
0	10946	22.9	2
0	10947	22.9	1
0	10948	22.9	1
0	10949	22.9	2
0	10950	22.9	1
0	10963	22.95	1
0	10964	22.95	2
0	10965	22.95	1
0	10972	23	1
0	10973	23	2
0	10974	23	1
0	10975	23	1
0	10976	23	2
0	10977	23	1
0	11018	23.05	1
0	11019	23.05	2
0	11020	23.05	1
0	11027	23.1	1
0	11028	23.1	2
0	11029	23.1	1
0	11030	23.1	1
0	11031	23.1	2
0	11032	23.1	1
0	11045	23.15	1
0	11046	23.15	2
0	11047	23.15	1
0	11068	23.2	1
0	11069	23.2	2
0	11070	23.2	1
0	11071	23.2	1
0	11072	23.2	2
0	11073	23.2	1
0	11086	23.25	1
0	11087	23.25	2
0	11088	23.25	1
0	11095	23.3	1
0	11096	23.3	2
0	11097	23.3	1
0	11098	23.3	1
0	11099	23.3	2
0	11100	23.3	1
0	11113	23.35	1
0	11114	23.35	2
0	11115	23.35	1
0	11122	23.4	1
0	11123	23.4	2
0	11124	23.4	1
0	11125	23.4	1
0	11126	23.4	2
0	11127	23.4	1
0	11154	23.45	1
0	11155	23.45	2
0	11156	23.45	1
0	11163	23.5	1
0	11164	23.5	2
0	11165	23.5	1
0	11166	23.5	1
0	11167	23.5	2
0	11168	23.5	1
0	11181	23.55	1
0	11182	23.55	2
0	11183	23.55	1
0	11207	23.6	1
0	11208	23.6	2
0	11209	23.6	1
0	11210	23.6	1
0	11211	23.6	2
0	11212	23.6	1
0	11225	23.65	1
0	11226	23.65	2
0	11227	23.65	1
0	11234	23.7	1
0	11235	23.7	2
0	11236	23.7	1
0	11237	23.7	1
0	11238	23.7	2
0	11239	23.7	1
0	11266	23.75	1
0	11267	23.75	2
0	11268	23.75	1
0	11275	23.8	1
0	11276	23.8	2
0	11277	23.8	1
0	11278	23.8	1
0	11279	23.8	2
0	11280	23.8	1
0	11293	23.85	1
0	11294	23.85	2
0	11295	23.85	1
0	11302	23.9	1
0	11303	23.9	2
0	11304	23.9	1
0	11305	23.9	1
0	11306	23.9	2
0	11307	23.9	1
0	11320	23.95	1
0	11321	23.95	2
0	11322	23.95	1
0	11329	24	1
0	11330	24	2
0	11331	24	1
0	11332	24	1
0	11333	24	2
0	11334	24	1
0	11347	24.05	1
0	11348	24.05	2
0	11349	24.05	1
0	11356	24.1	1
0	11357	24.1	2
0	11358	24.1	1
0	11359	24.1	1
0	11360	24.1	2
0	11361	24.1	1
0	11388	24.15	1
0	11389	24.15	2
0	11390	24.15	1
0	11397	24.2	1
0	11398	24.2	2
0	11399	24.2	1
0	11400	24.2	1
0	11401	24.2	2
0	11402	24.2	1
0	11415	24.25	1
0	11416	24.25	2
0	11417	24.25	1
0	11438	24.3	1
0	11439	24.3	2
0	11440	24.3	1
0	11441	24.3	1
0	11442	24.3	2
0	11443	24.3	1
0	11456	24.35	1
0	11457	24.35	2
0	11458	24.35	1
0	11465	24.4	1
0	11466	24.4	2
0	11467	24.4	1
0	11468	24.4	1
0	11469	24.4	2
0	11470	24.4	1
0	11483	24.45	1
0	11484	24.45	2
0	11485	24.45	1
0	11492	24.5	1
0	11493	24.5	2
0	11494	24.5	1
0	11495	24.5	1
0	11496	24.5	2
0	11497	24.5	1
0	11510	24.55	1
0	11511	24.55	2
0	11512	24.55	1
0	11519	24.6	1
0	11520	24.6	2
0	11521	24.6	1
0	11522	24.6	1
0	11523	24.6	2
0	11524	24.6	1
0	11537	24.65	1
0	11538	24.65	2
0	11539	24.65	1
0	11549	24.7	1
0	11550	24.7	2
0	11551	24.7	1
0	11552	24.7	1
0	11553	24.7	2
0	11554	24.7	1
0	11567	24.75	1
0	11568	24.75	2
0	11569	24.75	1
0	11576	24.8	1
0	11577	24.8	2
0	11578	24.8	1
0	11579	24.8	1
0	11580	24.8	2
0	11581	24.8	1
0	11594	24.85	1
0	11595	24.85	2
0	11596	24.85	1
0	11603	24.9	1
0	11604	24.9	2
0	11605	24.9	1
0	11606	24.9	1
0	11607	24.9	2
0	11608	24.9	1
0	11621	24.95	1
0	11622	24.95	2
0	11623	24.95	1
0	11630	25	1
0	11631	25	2
0	11632	25	1
0	11633	25	1
0	11634	25	2
0	11635	25	1
0	11662	25.05	1
0	11663	25.05	2
0	11664	25.05	1
0	11671	25.1	1
0	11672	25.1	2
0	11673	25.1	1
0	11674	25.1	1
0	11675	25.1	2
0	11676	25.1	1
0	11689	25.15	1
0	11690	25.15	2
0	11691	25.15	1
0	11712	25.2	1
0	11713	25.2	2
0	11714	25.2	1
0	11715	25.2	1
0	11716	25.2	2
0	11717	25.2	1
0	11730	25.25	1
0	11731	25.25	2
0	11732	25.25	1
0	11739	25.3	1
0	11740	25.3	2
0	11741	25.3	1
0	11742	25.3	1
0	11743	25.3	2
0	11744	25.3	1
0	11757	25.35	1
0	11758	25.35	2
0	11759	25.35	1
0	11766	25.4	1
0	11767	25.4	2
0	11768	25.4	1
0	11769	25.4	1
0	11770	25.4	2
0	11771	25.4	1
0	11784	25.45	1
0	11785	25.45	2
0	11786	25.45	1
0	11793	25.5	1
0	11794	25.5	2
0	11795	25.5	1
0	11796	25.5	1
0	11797	25.5	2
0	11798	25.5	1
0	11811	25.55	1
0	11812	25.55	2
0	11813	25.55	1
0	11834	25.6	1
0	11835	25.6	2
0	11836	25.6	1
0	11837	25.6	1
0	11838	25.6	2
0	11839	25.6	1
0	11852	25.65	1
0	11853	25.65	2
0	11854	25.65	1
0	11861	25.7	1
0	11862	25.7	2
0	11863	25.7	1
0	11864	25.7	1
0	11865	25.7	2
0	11866	25.7	1
0	11893	25.75	1
0	11894	25.75	2
0	11895	25.75	1
0	11902	25.8	1
0	11903	25.8	2
0	11904	25.8	1
0	11905	25.8	1
0	11906	25.8	2
0	11907	25.8	1
0	11920	25.85	1
0	11921	25.85	2
0	11922	25.85	1
0	11943	25.9	1
0	11944	25.9	2
0	11945	25.9	1
0	11946	25.9	1
0	11947	25.9	2
0	11948	25.9	1
0	11961	25.95	1
0	11962	25.95	2
0	11963	25.95	1
0	11970	26	1
0	11971	26	2
0	11972	26	1
0	11973	26	1
0	11974	26	2
0	11975	26	1
0	11991	26.05	1
0	11992	26.05	2
0	11993	26.05	1
0	12000	26.1	1
0	12001	26.1	2
0	12002	26.1	1
0	12003	26.1	1
0	12004	26.1	2
0	12005	26.1	1
0	12032	26.15	1
0	12033	26.15	2
0	12034	26.15	1
0	12041	26.2	1
0	12042	26.2	2
0	12043	26.2	1
0	12044	26.2	1
0	12045	26.2	2
0	12046	26.2	1
0	12059	26.25	1
0	12060	26.25	2
0	12061	26.25	1
0	12082	26.3	1
0	12083	26.3	2
0	12084	26.3	1
0	12085	26.3	1
0	12086	26.3	2
0	12087	26.3	1
0	12100	26.35	1
0	12101	26.35	2
0	12102	26.35	1
0	12109	26.4	1
0	12110	26.4	2
0	12111	26.4	1
0	12112	26.4	1
0	12113	26.4	2
0	12114	26.4	1
0	12127	26.45	1
0	12128	26.45	2
0	12129	26.45	1
0	12136	26.5	1
0	12137	26.5	2
0	12138	26.5	1
0	12139	26.5	1
0	12140	26.5	2
0	12141	26.5	1
0	12154	26.55	1
0	12155	26.55	2
0	12156	26.55	1
0	12163	26.6	1
0	12164	26.6	2
0	12165	26.6	1
0	12166	26.6	1
0	12167	26.6	2
0	12168	26.6	1
0	12181	26.65	1
0	12182	26.65	2
0	12183	26.65	1
0	12204	26.7	1
0	12205	26.7	2
0	12206	26.7	1
0	12207	26.7	1
0	12208	26.7	2
0	12209	26.7	1
0	12222	26.75	1
0	12223	26.75	2
0	12224	26.75	1
0	12231	26.8	1
0	12232	26.8	2
0	12233	26.8	1
0	12234	26.8	1
0	12235	26.8	2
0	12236	26.8	1
0	12263	26.85	1
0	12264	26.85	2
0	12265	26.85	1
0	12272	26.9	1
0	12273	26.9	2
0	12274	26.9	1
0	12275	26.9	1
0	12276	26.9	2
0	12277	26.9	1
0	12290	26.95	1
0	12291	26.95	2
0	12292	26.95	1
0	12299	27	1
0	12300	27	2
0	12301	27	1
0	12302	27	1
0	12303	27	2
0	12304	27	1
0	12317	27.05	1
0	12318	27.05	2
0	12319	27.05	1
0	12326	27.1	1
0	12327	27.1	2
0	12328	27.1	1
0	12329	27.1	1
0	12330	27.1	2
0	12331	27.1	1
0	12344	27.15	1
0	12345	27.15	2
0	12346	27.15	1
0	12353	27.2	1
0	12354	27.2	2
0	12355	27.2	1
0	12356	27.2	1
0	12357	27.2	2
0	12358	27.2	1
0	12385	27.25	1
0	12386	27.25	2
0	12387	27.25	1
0	12394	27.3	1
0	12395	27.3	2
0	12396	27.3	1
0	12397	27.3	1
0	12398	27.3	2
0	12399	27.3	1
0	12412	27.35	1
0	12413	27.35	2
0	12414	27.35	1
0	12424	27.4	1
0	12425	27.4	2
0	12426	27.4	1
0	12427	27.4	1
0	12428	27.4	2
0	12429	27.4	1
0	12442	27.45	1
0	12443	27.45	2
0	12444	27.45	1
0	12465	27.5	1
0	12466	27.5	2
0	12467	27.5	1
0	12468	27.5	1
0	12469	27.5	2
0	12470	27.5	1
0	12483	27.55	1
0	12484	27.55	2
0	12485	27.55	1
0	12492	27.6	1
0	12493	27.6	2
0	12494	27.6	1
0	12495	27.6	1
0	12496	27.6	2
0	12497	27.6	1
0	12524	27.65	1
0	12525	27.65	2
0	12526	27.65	1
0	12533	27.7	1
0	12534	27.7	2
0	12535	27.7	1
0	12536	27.7	1
0	12537	27.7	2
0	12538	27.7	1
0	12551	27.75	1
0	12552	27.75	2
0	12553	27.75	1
0	12560	27.8	1
0	12561	27.8	2
0	12562	27.8	1
0	12563	27.8	1
0	12564	27.8	2
0	12565	27.8	1
0	12578	27.85	1
0	12579	27.85	2
0	12580	27.85	1
0	12587	27.9	1
0	12588	27.9	2
0	12589	27.9	1
0	12590	27.9	1
0	12591	27.9	2
0	12592	27.9	1
0	12605	27.95	1
0	12606	27.95	2
0	12607	27.95	1
0	12614	28	1
0	12615	28	2
0	12616	28	1
0	12617	28	1
0	12618	28	2
0	12619	28	1
0	12646	28.05	1
0	12647	28.05	2
0	12648	28.05	1
0	12655	28.1	1
0	12656	28.1	2
0	12657	28.1	1
0	12658	28.1	1
0	12659	28.1	2
0	12660	28.1	1
0	12673	28.15	1
0	12674	28.15	2
0	12675	28.15	1
0	12696	28.2	1
0	12697	28.2	2
0	12698	28.2	1
0	12699	28.2	1
0	12700	28.2	2
0	12701	28.2	1
0	12714	28.25	1
0	12715	28.25	2
0	12716	28.25	1
0	12723	28.3	1
0	12724	28.3	2
0	12725	28.3	1
0	12726	28.3	1
0	12727	28.3	2
0	12728	28.3	1
0	12741	28.35	1
0	12742	28.35	2
0	12743	28.35	1
0	12750	28.4	1
0	12751	28.4	2
0	12752	28.4	1
0	12753	28.4	1
0	12754	28.4	2
0	12755	28.4	1
0	12768	28.45	1
0	12769	28.45	2
0	12770	28.45	1
0	12777	28.5	1
0	12778	28.5	2
0	12779	28.5	1
0	12780	28.5	1
0	12781	28.5	2
0	12782	28.5	1
0	12795	28.55	1
0	12796	28.55	2
0	12797	28.55	1
0	12818	28.6	1
0	12819	28.6	2
0	12820	28.6	1
0	12821	28.6	1
0	12822	28.6	2
0	12823	28.6	1
0	12836	28.65	1
0	12837	28.65	2
0	12838	28.65	1
0	12845	28.7	1
0	12846	28.7	2
0	12847	28.7	1
0	12848	28.7	1
0	12849	28.7	2
0	12850	28.7	1
0	12877	28.75	1
0	12878	28.75	2
0	12879	28.75	1
0	12886	28.8	1
0	12887	28.8	2
0	12888	28.8	1
0	12889	28.8	1
0	12890	28.8	2
0	12891	28.8	1
0	12918	28.85	1
0	12919	28.85	2
0	12920	28.85	1
0	12927	28.9	1
0	12928	28.9	2
0	12929	28.9	1
0	12930	28.9	1
0	12931	28.9	2
0	12932	28.9	1
0	12945	28.95	1
0	12946	28.95	2
0	12947	28.95	1
0	12968	29	1
0	12969	29	2
0	12970	29	1
0	12971	29	1
0	12972	29	2
0	12973	29	1
0	12986	29.05	1
0	12987	29.05	2
0	12988	29.05	1
0	12995	29.1	1
0	12996	29.1	2
0	12997	29.1	1
0	12998	29.1	1
0	12999	29.1	2
0	13000	29.1	1
0	13023	29.15	1
0	13024	29.15	2
0	13025	29.15	1
0	13032	29.2	1
0	13033	29.2	2
0	13034	29.2	1
0	13035	29.2	1
0	13036	29.2	2
0	13037	29.2	1
0	13050	29.25	1
0	13051	29.25	2
0	13052	29.25	1
0	13073	29.3	1
0	13074	29.3	2
0	13075	29.3	1
0	13076	29.3	1
0	13077	29.3	2
0	13078	29.3	1
0	13091	29.35	1
0	13092	29.35	2
0	13093	29.35	1
0	13114	29.4	1
0	13115	29.4	2
0	13116	29.4	1
0	13117	29.4	1
0	13118	29.4	2
0	13119	29.4	1
0	13132	29.45	1
0	13133	29.45	2
0	13134	29.45	1
0	13141	29.5	1
0	13142	29.5	2
0	13143	29.5	1
0	13144	29.5	1
0	13145	29.5	2
0	13146	29.5	1
0	13173	29.55	1
0	13174	29.55	2
0	13175	29.55	1
0	13182	29.6	1
0	13183	29.6	2
0	13184	29.6	1
0	13185	29.6	1
0	13186	29.6	2
0	13187	29.6	1
0	13200	29.65	1
0	13201	29.65	2
0	13202	29.65	1
0	13223	29.7	1
0	13224	29.7	2
0	13225	29.7	1
0	13226	29.7	1
0	13227	29.7	2
0	13228	29.7	1
0	13241	29.75	1
0	13242	29.75	2
0	13243	29.75	1
0	13250	29.8	1
0	13251	29.8	2
0	13252	29.8	1
0	13253	29.8	1
0	13254	29.8	2
0	13255	29.8	1
0	13282	29.85	1
0	13283	29.85	2
0	13284	29.85	1
0	13291	29.9	1
0	13292	29.9	2
0	13293	29.9	1
0	13294	29.9	1
0	13295	29.9	2
0	13296	29.9	1
0	13323	29.95	1
0	13324	29.95	2
0	13325	29.95	1
0	13332	30	1
0	13333	30	2
0	13334	30	1
0	13335	30	1
0	13336	30	2
0	13337	30	1
0	13350	30.05	1
0	13351	30.05	2
0	13352	30.05	1
0	13373	30.1	1
0	13374	30.1	2
0	13375	30.1	1
0	13376	30.1	1
0	13377	30.1	2
0	13378	30.1	1
0	13391	30.15	1
0	13392	30.15	2
0	13393	30.15	1
0	13400	30.2	1
0	13401	30.2	2
0	13402	30.2	1
0	13403	30.2	1
0	13404	30.2	2
0	13405	30.2	1
0	13432	30.25	1
0	13433	30.25	2
0	13434	30.25	1
0	13441	30.3	1
0	13442	30.3	2
0	13443	30.3	1
0	13444	30.3	1
0	13445	30.3	2
0	13446	30.3	1
0	13459	30.35	1
0	13460	30.35	2
0	13461	30.35	1
0	13482	30.4	1
0	13483	30.4	2
0	13484	30.4	1
0	13485	30.4	1
0	13486	30.4	2
0	13487	30.4	1
0	13500	30.45	1
0	13501	30.45	2
0	13502	30.45	1
0	13523	30.5	1
0	13524	30.5	2
0	13525	30.5	1
0	13526	30.5	1
0	13527	30.5	2
0	13528	30.5	1
0	13541	30.55	1
0	13542	30.55	2
0	13543	30.55	1
0	13550	30.6	1
0	13551	30.6	2
0	13552	30.6	1
0	13553	30.6	1
0	13554	30.6	2
0	13555	30.6	1
0	13582	30.65	1
0	13583	30.65	2
0	13584	30.65	1
0	13591	30.7	1
0	13592	30.7	2
0	13593	30.7	1
0	13594	30.7	1
0	13595	30.7	2
0	13596	30.7	1
0	13609	30.75	1
0	13610	30.75	2
0	13611	30.75	1
0	13632	30.8	1
0	13633	30.8	2
0	13634	30.8	1
0	13635	30.8	1
0	13636	30.8	2
0	13637	30.8	1
0	13650	30.85	1
0	13651	30.85	2
0	13652	30.85	1
0	13659	30.9	1
0	13660	30.9	2
0	13661	30.9	1
0	13662	30.9	1
0	13663	30.9	2
0	13664	30.9	1
0	13691	30.95	1
0	13692	30.95	2
0	13693	30.95	1
0	13700	31	1
0	13701	31	2
0	13702	31	1
0	13703	31	1
0	13704	31	2
0	13705	31	1
0	13732	31.05	1
0	13733	31.05	2
0	13734	31.05	1
0	13741	31.1	1
0	13742	31.1	2
0	13743	31.1	1
0	13744	31.1	1
0	13745	31.1	2
0	13746	31.1	1
0	13759	31.15	1
0	13760	31.15	2
0	13761	31.15	1
0	13782	31.2	1
0	13783	31.2	2
0	13784	31.2	1
0	13785	31.2	1
0	13786	31.2	2
0	13787	31.2	1
0	13800	31.25	1
0	13801	31.25	2
0	13802	31.25	1
0	13809	31.3	1
0	13810	31.3	2
0	13811	31.3	1
0	13812	31.3	1
0	13813	31.3	2
0	13814	31.3	1
0	13837	31.35	1
0	13838	31.35	2
0	13839	31.35	1
0	13846	31.4	1
0	13847	31.4	2
0	13848	31.4	1
0	13849	31.4	1
0	13850	31.4	2
0	13851	31.4	1
0	13864	31.45	1
0	13865	31.45	2
0	13866	31.45	1
0	13887	31.5	1
0	13888	31.5	2
0	13889	31.5	1
0	13890	31.5	1
0	13891	31.5	2
0	13892	31.5	1
0	13905	31.55	1
0	13906	31.55	2
0	13907	31.55	1
0	13928	31.6	1
0	13929	31.6	2
0	13930	31.6	1
0	13931	31.6	1
0	13932	31.6	2
0	13933	31.6	1
0	13946	31.65	1
0	13947	31.65	2
0	13948	31.65	1
0	13955	31.7	1
0	13956	31.7	2
0	13957	31.7	1
0	13958	31.7	1
0	13959	31.7	2
0	13960	31.7	1
0	13976	31.75	1
0	13977	31.75	2
0	13978	31.75	1
0	13985	31.8	1
0	13986	31.8	2
0	13987	31.8	1
0	13988	31.8	1
0	13989	31.8	2
0	13990	31.8	1
0	14003	31.85	1
0	14004	31.85	2
0	14005	31.85	1
0	14026	31.9	1
0	14027	31.9	2
0	14028	31.9	1
0	14029	31.9	1
0	14030	31.9	2
0	14031	31.9	1
0	14044	31.95	1
0	14045	31.95	2
0	14046	31.95	1
0	14053	32	1
0	14054	32	2
0	14055	32	1
0	14056	32	1
0	14057	32	2
0	14058	32	1
0	14074	32.05	1
0	14075	32.05	2
0	14076	32.05	1
0	14083	32.1	1
0	14084	32.1	2
0	14085	32.1	1
0	14086	32.1	1
0	14087	32.1	2
0	14088	32.1	1
0	14101	32.15	1
0	14102	32.15	2
0	14103	32.15	1
0	14110	32.2	1
0	14111	32.2	2
0	14112	32.2	1
0	14113	32.2	1
0	14114	32.2	2
0	14115	32.2	1
0	14128	32.25	1
0	14129	32.25	2
0	14130	32.25	1
0	14137	32.3	1
0	14138	32.3	2
0	14139	32.3	1
0	14140	32.3	1
0	14141	32.3	2
0	14142	32.3	1
0	14155	32.35	1
0	14156	32.35	2
0	14157	32.35	1
0	14164	32.4	1
0	14165	32.4	2
0	14166	32.4	1
0	14167	32.4	1
0	14168	32.4	2
0	14169	32.4	1
0	14182	32.45	1
0	14183	32.45	2
0	14184	32.45	1
0	14191	32.5	1
0	14192	32.5	2
0	14193	32.5	1
0	14194	32.5	1
0	14195	32.5	2
0	14196	32.5	1
0	14209	32.55	1
0	14210	32.55	2
0	14211	32.55	1
0	14218	32.6	1
0	14219	32.6	2
0	14220	32.6	1
0	14221	32.6	1
0	14222	32.6	2
0	14223	32.6	1
0	14236	32.65	1
0	14237	32.65	2
0	14238	32.65	1
0	14245	32.7	1
0	14246	32.7	2
0	14247	32.7	1
0	14248	32.7	1
0	14249	32.7	2
0	14250	32.7	1
0	14263	32.75	1
0	14264	32.75	2
0	14265	32.75	1
0	14272	32.8	1
0	14273	32.8	2
0	14274	32.8	1
0	14275	32.8	1
0	14276	32.8	2
0	14277	32.8	1
0	14290	32.85	1
0	14291	32.85	2
0	14292	32.85	1
0	14299	32.9	1
0	14300	32.9	2
0	14301	32.9	1
0	14302	32.9	1
0	14303	32.9	2
0	14304	32.9	1
0	14317	32.95	1
0	14318	32.95	2
0	14319	32.95	1
0	14326	33	1
0	14327	33	2
0	14328	33	1
0	14329	33	1
0	14330	33	2
0	14331	33	1
0	14344	33.05	1
0	14345	33.05	2
0	14346	33.05	1
0	14353	33.1	1
0	14354	33.1	2
0	14355	33.1	1
0	14356	33.1	1
0	14357	33.1	2
0	14358	33.1	1
0	14371	33.15	1
0	14372	33.15	2
0	14373	33.15	1
0	14394	33.2	1
0	14395	33.2	2
0	14396	33.2	1
0	14397	33.2	1
0	14398	33.2	2
0	14399	33.2	1
0	14412	33.25	1
0	14413	33.25	2
0	14414	33.25	1
0	14421	33.3	1
0	14422	33.3	2
0	14423	33.3	1
0	14424	33.3	1
0	14425	33.3	2
0	14426	33.3	1
0	14453	33.35	1
0	14454	33.35	2
0	14455	33.35	1
0	14462	33.4	1
0	14463	33.4	2
0	14464	33.4	1
0	14465	33.4	1
0	14466	33.4	2
0	14467	33.4	1
0	14494	33.45	1
0	14495	33.45	2
0	14496	33.45	1
0	14503	33.5	1
0	14504	33.5	2
0	14505	33.5	1
0	14506	33.5	1
0	14507	33.5	2
0	14508	33.5	1
0	14521	33.55	1
0	14522	33.55	2
0	14523	33.55	1
0	14544	33.6	1
0	14545	33.6	2
0	14546	33.6	1
0	14547	33.6	1
0	14548	33.6	2
0	14549	33.6	1
0	14562	33.65	1
0	14563	33.65	2
0	14564	33.65	1
0	14571	33.7	1
0	14572	33.7	2
0	14573	33.7	1
0	14574	33.7	1
0	14575	33.7	2
0	14576	33.7	1
0	14603	33.75	1
0	14604	33.75	2
0	14605	33.75	1
0	14612	33.8	1
0	14613	33.8	2
0	14614	33.8	1
0	14615	33.8	1
0	14616	33.8	2
0	14617	33.8	1
0	14630	33.85	1
0	14631	33.85	2
0	14632	33.85	1
0	14653	33.9	1
0	14654	33.9	2
0	14655	33.9	1
0	14656	33.9	1
0	14657	33.9	2
0	14658	33.9	1
0	14671	33.95	1
0	14672	33.95	2
0	14673	33.95	1
0	14694	34	1
0	14695	34	2
0	14696	34	1
0	14697	34	1
0	14698	34	2
0	14699	34	1
0	14712	34.05	1
0	14713	34.05	2
0	14714	34.05	1
0	14721	34.1	1
0	14722	34.1	2
0	14723	34.1	1
0	14724	34.1	1
0	14725	34.1	2
0	14726	34.1	1
0	14753	34.15	1
0	14754	34.15	2
0	14755	34.15	1
0	14762	34.2	1
0	14763	34.2	2
0	14764	34.2	1
0	14765	34.2	1
0	14766	34.2	2
0	14767	34.2	1
0	14780	34.25	1
0	14781	34.25	2
0	14782	34.25	1
0	14803	34.3	1
0	14804	34.3	2
0	14805	34.3	1
0	14806	34.3	1
0	14807	34.3	2
0	14808	34.3	1
0	14821	34.35	1
0	14822	34.35	2
0	14823	34.35	1
0	14830	34.4	1
0	14831	34.4	2
0	14832	34.4	1
0	14833	34.4	1
0	14834	34.4	2
0	14835	34.4	1
0	14862	34.45	1
0	14863	34.45	2
0	14864	34.45	1
0	14871	34.5	1
0	14872	34.5	2
0	14873	34.5	1
0	14874	34.5	1
0	14875	34.5	2
0	14876	34.5	1
0	14903	34.55	1
0	14904	34.55	2
0	14905	34.55	1
0	14912	34.6	1
0	14913	34.6	2
0	14914	34.6	1
0	14915	34.6	1
0	14916	34.6	2
0	14917	34.6	1
0	14930	34.65	1
0	14931	34.65	2
0	14932	34.65	1
0	14953	34.7	1
0	14954	34.7	2
0	14955	34.7	1
0	14956	34.7	1
0	14957	34.7	2
0	14958	34.7	1
0	14971	34.75	1
0	14972	34.75	2
0	14973	34.75	1
0	14980	34.8	1
0	14981	34.8	2
0	14982	34.8	1
0	14983	34.8	1
0	14984	34.8	2
0	14985	34.8	1
0	15012	34.85	1
0	15013	34.85	2
0	15014	34.85	1
0	15021	34.9	1
0	15022	34.9	2
0	15023	34.9	1
0	15024	34.9	1
0	15025	34.9	2
0	15026	34.9	1
0	15039	34.95	1
0	15040	34.95	2
0	15041	34.95	1
0	15062	35	1
0	15063	35	2
0	15064	35	1
0	15065	35	1
0	15066	35	2
0	15067	35	1
0	15080	35.05	1
0	15081	35.05	2
0	15082	35.05	1
0	15103	35.1	1
0	15104	35.1	2
0	15105	35.1	1
0	15106	35.1	1
0	15107	35.1	2
0	15108	35.1	1
0	15121	35.15	1
0	15122	35.15	2
0	15123	35.15	1
0	15130	35.2	1
0	15131	35.2	2
0	15132	35.2	1
0	15133	35.2	1
0	15134	35.2	2
0	15135	35.2	1
0	15162	35.25	1
0	15163	35.25	2
0	15164	35.25	1
0	15171	35.3	1
0	15172	35.3	2
0	15173	35.3	1
0	15174	35.3	1
0	15175	35.3	2
0	15176	35.3	1
0	15189	35.35	1
0	15190	35.35	2
0	15191	35.35	1
0	15212	35.4	1
0	15213	35.4	2
0	15214	35.4	1
0	15215	35.4	1
0	15216	35.4	2
0	15217	35.4	1
0	15230	35.45	1
0	15231	35.45	2
0	15232	35.45	1
0	15239	35.5	1
0	15240	35.5	2
0	15241	35.5	1
0	15242	35.5	1
0	15243	35.5	2
0	15244	35.5	1
0	15271	35.55	1
0	15272	35.55	2
0	15273	35.55	1
0	15280	35.6	1
0	15281	35.6	2
0	15282	35.6	1
0	15283	35.6	1
0	15284	35.6	2
0	15285	35.6	1
0	15312	35.65	1
0	15313	35.65	2
0	15314	35.65	1
0	15321	35.7	1
0	15322	35.7	2
0	15323	35.7	1
0	15324	35.7	1
0	15325	35.7	2
0	15326	35.7	1
0	15339	35.75	1
0	15340	35.75	2
0	15341	35.75	1
0	15362	35.8	1
0	15363	35.8	2
0	15364	35.8	1
0	15365	35.8	1
0	15366	35.8	2
0	15367	35.8	1
0	15380	35.85	1
0	15381	35.85	2
0	15382	35.85	1
0	15389	35.9	1
0	15390	35.9	2
0	15391	35.9	1
0	15392	35.9	1
0	15393	35.9	2
0	15394	35.9	1
0	15421	35.95	1
0	15422	35.95	2
0	15423	35.95	1
0	15430	36	1
0	15431	36	2
0	15432	36	1
0	15433	36	1
0	15434	36	2
0	15435	36	1
0	15448	36.05	1
0	15449	36.05	2
0	15450	36.05	1
0	15471	36.1	1
0	15472	36.1	2
0	15473	36.1	1
0	15474	36.1	1
0	15475	36.1	2
0	15476	36.1	1
0	15489	36.15	1
0	15490	36.15	2
0	15491	36.15	1
0	15512	36.2	1
0	15513	36.2	2
0	15514	36.2	1
0	15515	36.2	1
0	15516	36.2	2
0	15517	36.2	1
0	15530	36.25	1
0	15531	36.25	2
0	15532	36.25	1
0	15539	36.3	1
0	15540	36.3	2
0	15541	36.3	1
0	15542	36.3	1
0	15543	36.3	2
0	15544	36.3	1
0	15567	36.35	1
0	15568	36.35	2
0	15569	36.35	1
0	15576	36.4	1
0	15577	36.4	2
0	15578	36.4	1
0	15579	36.4	1
0	15580	36.4	2
0	15581	36.4	1
0	15594	36.45	1
0	15595	36.45	2
0	15596	36.45	1
0	15617	36.5	1
0	15618	36.5	2
0	15619	36.5	1
0	15620	36.5	1
0	15621	36.5	2
0	15622	36.5	1
0	15635	36.55	1
0	15636	36.55	2
0	15637	36.55	1
0	15644	36.6	1
0	15645	36.6	2
0	15646	36.6	1
0	15647	36.6	1
0	15648	36.6	2
0	15649	36.6	1
0	15676	36.65	1
0	15677	36.65	2
0	15678	36.65	1
0	15685	36.7	1
0	15686	36.7	2
0	15687	36.7	1
0	15688	36.7	1
0	15689	36.7	2
0	15690	36.7	1
0	15713	36.75	1
0	15714	36.75	2
0	15715	36.75	1
0	15722	36.8	1
0	15723	36.8	2
0	15724	36.8	1
0	15725	36.8	1
0	15726	36.8	2
0	15727	36.8	1
0	15740	36.85	1
0	15741	36.85	2
0	15742	36.85	1
0	15763	36.9	1
0	15764	36.9	2
0	15765	36.9	1
0	15766	36.9	1
0	15767	36.9	2
0	15768	36.9	1
0	15781	36.95	1
0	15782	36.95	2
0	15783	36.95	1
0	15790	37	1
0	15791	37	2
0	15792	37	1
0	15793	37	1
0	15794	37	2
0	15795	37	1
0	15822	37.05	1
0	15823	37.05	2
0	15824	37.05	1
0	15831	37.1	1
0	15832	37.1	2
0	15833	37.1	1
0	15834	37.1	1
0	15835	37.1	2
0	15836	37.1	1
0	15849	37.15	1
0	15850	37.15	2
0	15851	37.15	1
0	15872	37.2	1
0	15873	37.2	2
0	15874	37.2	1
0	15875	37.2	1
0	15876	37.2	2
0	15877	37.2	1
0	15890	37.25	1
0	15891	37.25	2
0	15892	37.25	1
0	15909	37.3	1
0	15910	37.3	2
0	15911	37.3	1
0	15912	37.3	1
0	15913	37.3	2
0	15914	37.3	1
0	15927	37.35	1
0	15928	37.35	2
0	15929	37.35	1
0	15936	37.4	1
0	15937	37.4	2
0	15938	37.4	1
0	15939	37.4	1
0	15940	37.4	2
0	15941	37.4	1
0	15957	37.45	1
0	15958	37.45	2
0	15959	37.45	1
0	15966	37.5	1
0	15967	37.5	2
0	15968	37.5	1
0	15969	37.5	1
0	15970	37.5	2
0	15971	37.5	1
0	15984	37.55	1
0	15985	37.55	2
0	15986	37.55	1
0	16003	37.6	1
0	16004	37.6	2
0	16005	37.6	1
0	16006	37.6	1
0	16007	37.6	2
0	16008	37.6	1
0	16021	37.65	1
0	16022	37.65	2
0	16023	37.65	1
0	16030	37.7	1
0	16031	37.7	2
0	16032	37.7	1
0	16033	37.7	1
0	16034	37.7	2
0	16035	37.7	1
0	16062	37.75	1
0	16063	37.75	2
0	16064	37.75	1
0	16071	37.8	1
0	16072	37.8	2
0	16073	37.8	1
0	16074	37.8	1
0	16075	37.8	2
0	16076	37.8	1
0	16089	37.85	1
0	16090	37.85	2
0	16091	37.85	1
0	16098	37.9	1
0	16099	37.9	2
0	16100	37.9	1
0	16101	37.9	1
0	16102	37.9	2
0	16103	37.9	1
0	16116	37.95	1
0	16117	37.95	2
0	16118	37.95	1
0	16125	38	1
0	16126	38	2
0	16127	38	1
0	16128	38	1
0	16129	38	2
0	16130	38	1
0	16143	38.05	1
0	16144	38.05	2
0	16145	38.05	1
0	16152	38.1	1
0	16153	38.1	2
0	16154	38.1	1
0	16155	38.1	1
0	16156	38.1	2
0	16157	38.1	1
0	16184	38.15	1
0	16185	38.15	2
0	16186	38.15	1
0	16193	38.2	1
0	16194	38.2	2
0	16195	38.2	1
0	16196	38.2	1
0	16197	38.2	2
0	16198	38.2	1
0	16211	38.25	1
0	16212	38.25	2
0	16213	38.25	1
0	16234	38.3	1
0	16235	38.3	2
0	16236	38.3	1
0	16237	38.3	1
0	16238	38.3	2
0	16239	38.3	1
0	16252	38.35	1
0	16253	38.35	2
0	16254	38.35	1
0	16261	38.4	1
0	16262	38.4	2
0	16263	38.4	1
0	16264	38.4	1
0	16265	38.4	2
0	16266	38.4	1
0	16279	38.45	1
0	16280	38.45	2
0	16281	38.45	1
0	16288	38.5	1
0	16289	38.5	2
0	16290	38.5	1
0	16291	38.5	1
0	16292	38.5	2
0	16293	38.5	1
0	16306	38.55	1
0	16307	38.55	2
0	16308	38.55	1
0	16315	38.6	1
0	16316	38.6	2
0	16317	38.6	1
0	16318	38.6	1
0	16319	38.6	2
0	16320	38.6	1
0	16333	38.65	1
0	16334	38.65	2
0	16335	38.65	1
0	16356	38.7	1
0	16357	38.7	2
0	16358	38.7	1
0	16359	38.7	1
0	16360	38.7	2
0	16361	38.7	1
0	16374	38.75	1
0	16375	38.75	2
0	16376	38.75	1
0	16383	38.8	1
0	16384	38.8	2
0	16385	38.8	1
0	16386	38.8	1
0	16387	38.8	2
0	16388	38.8	1
0	16415	38.85	1
0	16416	38.85	2
0	16417	38.85	1
0	16438	38.9	1
0	16439	38.9	2
0	16440	38.9	1
0	16441	38.9	1
0	16442	38.9	2
0	16443	38.9	1
0	16456	38.95	1
0	16457	38.95	2
0	16458	38.95	1
0	16465	39	1
0	16466	39	2
0	16467	39	1
0	16468	39	1
0	16469	39	2
0	16470	39	1
0	16497	39.05	1
0	16498	39.05	2
0	16499	39.05	1
0	16506	39.1	1
0	16507	39.1	2
0	16508	39.1	1
0	16509	39.1	1
0	16510	39.1	2
0	16511	39.1	1
0	16524	39.15	1
0	16525	39.15	2
0	16526	39.15	1
0	16533	39.2	1
0	16534	39.2	2
0	16535	39.2	1
0	16536	39.2	1
0	16537	39.2	2
0	16538	39.2	1
0	16565	39.25	1
0	16566	39.25	2
0	16567	39.25	1
0	16574	39.3	1
0	16575	39.3	2
0	16576	39.3	1
0	16577	39.3	1
0	16578	39.3	2
0	16579	39.3	1
0	16592	39.35	1
0	16593	39.35	2
0	16594	39.35	1
0	16615	39.4	1
0	16616	39.4	2
0	16617	39.4	1
0	16618	39.4	1
0	16619	39.4	2
0	16620	39.4	1
0	16647	39.45	1
0	16648	39.45	2
0	16649	39.45	1
0	16656	39.5	1
0	16657	39.5	2
0	16658	39.5	1
0	16659	39.5	1
0	16660	39.5	2
0	16661	39.5	1
0	16674	39.55	1
0	16675	39.55	2
0	16676	39.55	1
0	16697	39.6	1
0	16698	39.6	2
0	16699	39.6	1
0	16700	39.6	1
0	16701	39.6	2
0	16702	39.6	1
0	16715	39.65	1
0	16716	39.65	2
0	16717	39.65	1
0	16724	39.7	1
0	16725	39.7	2
0	16726	39.7	1
0	16727	39.7	1
0	16728	39.7	2
0	16729	39.7	1
0	16742	39.75	1
0	16743	39.75	2
0	16744	39.75	1
0	16765	39.8	1
0	16766	39.8	2
0	16767	39.8	1
0	16768	39.8	1
0	16769	39.8	2
0	16770	39.8	1
0	16783	39.85	1
0	16784	39.85	2
0	16785	39.85	1
0	16792	39.9	1
0	16793	39.9	2
0	16794	39.9	1
0	16795	39.9	1
0	16796	39.9	2
0	16797	39.9	1
0	16824	39.95	1
0	16825	39.95	2
0	16826	39.95	1
0	16847	40	1
0	16848	40	2
0	16849	40	1
0	16850	40	1
0	16851	40	2
0	16852	40	1
0	16865	40.05	1
0	16866	40.05	2
0	16867	40.05	1
0	16874	40.1	1
0	16875	40.1	2
0	16876	40.1	1
0	16877	40.1	1
0	16878	40.1	2
0	16879	40.1	1
0	16906	40.15	1
0	16907	40.15	2
0	16908	40.15	1
0	16915	40.2	1
0	16916	40.2	2
0	16917	40.2	1
0	16918	40.2	1
0	16919	40.2	2
0	16920	40.2	1
0	16933	40.25	1
0	16934	40.25	2
0	16935	40.25	1
0	16942	40.3	1
0	16943	40.3	2
0	16944	40.3	1
0	16945	40.3	1
0	16946	40.3	2
0	16947	40.3	1
0	16974	40.35	1
0	16975	40.35	2
0	16976	40.35	1
0	16983	40.4	1
0	16984	40.4	2
0	16985	40.4	1
0	16986	40.4	1
0	16987	40.4	2
0	16988	40.4	1
0	17001	40.45	1
0	17002	40.45	2
0	17003	40.45	1
0	17024	40.5	1
0	17025	40.5	2
0	17026	40.5	1
0	17027	40.5	1
0	17028	40.5	2
0	17029	40.5	1
0	17056	40.55	1
0	17057	40.55	2
0	17058	40.55	1
0	17065	40.6	1
0	17066	40.6	2
0	17067	40.6	1
0	17068	40.6	1
0	17069	40.6	2
0	17070	40.6	1
0	17083	40.65	1
0	17084	40.65	2
0	17085	40.65	1
0	17106	40.7	1
0	17107	40.7	2
0	17108	40.7	1
0	17109	40.7	1
0	17110	40.7	2
0	17111	40.7	1
0	17124	40.75	1
0	17125	40.75	2
0	17126	40.75	1
0	17133	40.8	1
0	17134	40.8	2
0	17135	40.8	1
0	17136	40.8	1
0	17137	40.8	2
0	17138	40.8	1
0	17151	40.85	1
0	17152	40.85	2
0	17153	40.85	1
0	17174	40.9	1
0	17175	40.9	2
0	17176	40.9	1
0	17177	40.9	1
0	17178	40.9	2
0	17179	40.9	1
0	17192	40.95	1
0	17193	40.95	2
0	17194	40.95	1
0	17201	41	1
0	17202	41	2
0	17203	41	1
0	17204	41	1
0	17205	41	2
0	17206	41	1
0	17233	41.05	1
0	17234	41.05	2
0	17235	41.05	1
0	17256	41.1	1
0	17257	41.1	2
0	17258	41.1	1
0	17259	41.1	1
0	17260	41.1	2
0	17261	41.1	1
0	17274	41.15	1
0	17275	41.15	2
0	17276	41.15	1
0	17283	41.2	1
0	17284	41.2	2
0	17285	41.2	1
0	17286	41.2	1
0	17287	41.2	2
0	17288	41.2	1
0	17315	41.25	1
0	17316	41.25	2
0	17317	41.25	1
0	17324	41.3	1
0	17325	41.3	2
0	17326	41.3	1
0	17327	41.3	1
0	17328	41.3	2
0	17329	41.3	1
0	17342	41.35	1
0	17343	41.35	2
0	17344	41.35	1
0	17351	41.4	1
0	17352	41.4	2
0	17353	41.4	1
0	17354	41.4	1
0	17355	41.4	2
0	17356	41.4	1
0	17383	41.45	1
0	17384	41.45	2
0	17385	41.45	1
0	17392	41.5	1
0	17393	41.5	2
0	17394	41.5	1
0	17395	41.5	1
0	17396	41.5	2
0	17397	41.5	1
0	17410	41.55	1
0	17411	41.55	2
0	17412	41.55	1
0	17433	41.6	1
0	17434	41.6	2
0	17435	41.6	1
0	17436	41.6	1
0	17437	41.6	2
0	17438	41.6	1
0	17461	41.65	1
0	17462	41.65	2
0	17463	41.65	1
0	17470	41.7	1
0	17471	41.7	2
0	17472	41.7	1
0	17473	41.7	1
0	17474	41.7	2
0	17475	41.7	1
0	17488	41.75	1
0	17489	41.75	2
0	17490	41.75	1
0	17511	41.8	1
0	17512	41.8	2
0	17513	41.8	1
0	17514	41.8	1
0	17515	41.8	2
0	17516	41.8	1
0	17529	41.85	1
0	17530	41.85	2
0	17531	41.85	1
0	17538	41.9	1
0	17539	41.9	2
0	17540	41.9	1
0	17541	41.9	1
0	17542	41.9	2
0	17543	41.9	1
0	17556	41.95	1
0	17557	41.95	2
0	17558	41.95	1
0	17579	42	1
0	17580	42	2
0	17581	42	1
0	17582	42	1
0	17583	42	2
0	17584	42	1
0	17597	42.05	1
0	17598	42.05	2
0	17599	42.05	1
0	17606	42.1	1
0	17607	42.1	2
0	17608	42.1	1
0	17609	42.1	1
0	17610	42.1	2
0	17611	42.1	1
0	17638	42.15	1
0	17639	42.15	2
0	17640	42.15	1
0	17661	42.2	1
0	17662	42.2	2
0	17663	42.2	1
0	17664	42.2	1
0	17665	42.2	2
0	17666	42.2	1
0	17679	42.25	1
0	17680	42.25	2
0	17681	42.25	1
0	17688	42.3	1
0	17689	42.3	2
0	17690	42.3	1
0	17691	42.3	1
0	17692	42.3	2
0	17693	42.3	1
0	17716	42.35	1
0	17717	42.35	2
0	17718	42.35	1
0	17725	42.4	1
0	17726	42.4	2
0	17727	42.4	1
0	17728	42.4	1
0	17729	42.4	2
0	17730	42.4	1
0	17743	42.45	1
0	17744	42.45	2
0	17745	42.45	1
0	17752	42.5	1
0	17753	42.5	2
0	17754	42.5	1
0	17755	42.5	1
0	17756	42.5	2
0	17757	42.5	1
0	17784	42.55	1
0	17785	42.55	2
0	17786	42.55	1
0	17793	42.6	1
0	17794	42.6	2
0	17795	42.6	1
0	17796	42.6	1
0	17797	42.6	2
0	17798	42.6	1
0	17811	42.65	1
0	17812	42.65	2
0	17813	42.65	1
0	17834	42.7	1
0	17835	42.7	2
0	17836	42.7	1
0	17837	42.7	1
0	17838	42.7	2
0	17839	42.7	1
0	17866	42.75	1
0	17867	42.75	2
0	17868	42.75	1
0	17875	42.8	1
0	17876	42.8	2
0	17877	42.8	1
0	17878	42.8	1
0	17879	42.8	2
0	17880	42.8	1
0	17893	42.85	1
0	17894	42.85	2
0	17895	42.85	1
0	17905	42.9	1
0	17906	42.9	2
0	17907	42.9	1
0	17908	42.9	1
0	17909	42.9	2
0	17910	42.9	1
0	17923	42.95	1
0	17924	42.95	2
0	17925	42.95	1
0	17932	43	1
0	17933	43	2
0	17934	43	1
0	17935	43	1
0	17936	43	2
0	17937	43	1
0	17950	43.05	1
0	17951	43.05	2
0	17952	43.05	1
0	17973	43.1	1
0	17974	43.1	2
0	17975	43.1	1
0	17976	43.1	1
0	17977	43.1	2
0	17978	43.1	1
0	17991	43.15	1
0	17992	43.15	2
0	17993	43.15	1
0	18000	43.2	1
0	18001	43.2	2
0	18002	43.2	1
0	18003	43.2	1
0	18004	43.2	2
0	18005	43.2	1
0	18032	43.25	1
0	18033	43.25	2
0	18034	43.25	1
0	18041	43.3	1
0	18042	43.3	2
0	18043	43.3	1
0	18044	43.3	1
0	18045	43.3	2
0	18046	43.3	1
0	18059	43.35	1
0	18060	43.35	2
0	18061	43.35	1
0	18068	43.4	1
0	18069	43.4	2
0	18070	43.4	1
0	18071	43.4	1
0	18072	43.4	2
0	18073	43.4	1
0	18086	43.45	1
0	18087	43.45	2
0	18088	43.45	1
0	18095	43.5	1
0	18096	43.5	2
0	18097	43.5	1
0	18098	43.5	1
0	18099	43.5	2
0	18100	43.5	1
0	18113	43.55	1
0	18114	43.55	2
0	18115	43.55	1
0	18122	43.6	1
0	18123	43.6	2
0	18124	43.6	1
0	18125	43.6	1
0	18126	43.6	2
0	18127	43.6	1
0	18143	43.65	1
0	18144	43.65	2
0	18145	43.65	1
0	18152	43.7	1
0	18153	43.7	2
0	18154	43.7	1
0	18155	43.7	1
0	18156	43.7	2
0	18157	43.7	1
0	18170	43.75	1
0	18171	43.75	2
0	18172	43.75	1
0	18179	43.8	1
0	18180	43.8	2
0	18181	43.8	1
0	18182	43.8	1
0	18183	43.8	2
0	18184	43.8	1
0	18197	43.85	1
0	18198	43.85	2
0	18199	43.85	1
0	18206	43.9	1
0	18207	43.9	2
0	18208	43.9	1
0	18209	43.9	1
0	18210	43.9	2
0	18211	43.9	1
0	18224	43.95	1
0	18225	43.95	2
0	18226	43.95	1
0	18233	44	1
0	18234	44	2
0	18235	44	1
0	18236	44	1
0	18237	44	2
0	18238	44	1
0	18251	44.05	1
0	18252	44.05	2
0	18253	44.05	1
0	18260	44.1	1
0	18261	44.1	2
0	18262	44.1	1
0	18263	44.1	1
0	18264	44.1	2
0	18265	44.1	1
0	18278	44.15	1
0	18279	44.15	2
0	18280	44.15	1
0	18287	44.2	1
0	18288	44.2	2
0	18289	44.2	1
0	18290	44.2	1
0	18291	44.2	2
0	18292	44.2	1
0	18305	44.25	1
0	18306	44.25	2
0	18307	44.25	1
0	18314	44.3	1
0	18315	44.3	2
0	18316	44.3	1
0	18317	44.3	1
0	18318	44.3	2
0	18319	44.3	1
0	18346	44.35	1
0	18347	44.35	2
0	18348	44.35	1
0	18355	44.4	1
0	18356	44.4	2
0	18357	44.4	1
0	18358	44.4	1
0	18359	44.4	2
0	18360	44.4	1
0	18373	44.45	1
0	18374	44.45	2
0	18375	44.45	1
0	18396	44.5	1
0	18397	44.5	2
0	18398	44.5	1
0	18399	44.5	1
0	18400	44.5	2
0	18401	44.5	1
0	18414	44.55	1
0	18415	44.55	2
0	18416	44.55	1
0	18423	44.6	1
0	18424	44.6	2
0	18425	44.6	1
0	18426	44.6	1
0	18427	44.6	2
0	18428	44.6	1
0	18441	44.65	1
0	18442	44.65	2
0	18443	44.65	1
0	18450	44.7	1
0	18451	44.7	2
0	18452	44.7	1
0	18453	44.7	1
0	18454	44.7	2
0	18455	44.7	1
0	18468	44.75	1
0	18469	44.75	2
0	18470	44.75	1
0	18477	44.8	1
0	18478	44.8	2
0	18479	44.8	1
0	18480	44.8	1
0	18481	44.8	2
0	18482	44.8	1
0	18509	44.85	1
0	18510	44.85	2
0	18511	44.85	1
0	18528	44.9	1
0	18529	44.9	2
0	18530	44.9	1
0	18531	44.9	1
0	18532	44.9	2
0	18533	44.9	1
0	18546	44.95	1
0	18547	44.95	2
0	18548	44.95	1
0	18565	45	1
0	18566	45	2
0	18567	45	1
0	18568	45	1
0	18569	45	2
0	18570	45	1
0	18597	45.05	1
0	18598	45.05	2
0	18599	45.05	1
0	18606	45.1	1
0	18607	45.1	2
0	18608	45.1	1
0	18609	45.1	1
0	18610	45.1	2
0	18611	45.1	1
0	18624	45.15	1
0	18625	45.15	2
0	18626	45.15	1
0	18633	45.2	1
0	18634	45.2	2
0	18635	45.2	1
0	18636	45.2	1
0	18637	45.2	2
0	18638	45.2	1
0	18651	45.25	1
0	18652	45.25	2
0	18653	45.25	1
0	18660	45.3	1
0	18661	45.3	2
0	18662	45.3	1
0	18663	45.3	1
0	18664	45.3	2
0	18665	45.3	1
0	18678	45.35	1
0	18679	45.35	2
0	18680	45.35	1
0	18701	45.4	1
0	18702	45.4	2
0	18703	45.4	1
0	18704	45.4	1
0	18705	45.4	2
0	18706	45.4	1
0	18733	45.45	1
0	18734	45.45	2
0	18735	45.45	1
0	18742	45.5	1
0	18743	45.5	2
0	18744	45.5	1
0	18745	45.5	1
0	18746	45.5	2
0	18747	45.5	1
0	18774	45.55	1
0	18775	45.55	2
0	18776	45.55	1
0	18793	45.6	1
0	18794	45.6	2
0	18795	45.6	1
0	18796	45.6	1
0	18797	45.6	2
0	18798	45.6	1
0	18811	45.65	1
0	18812	45.65	2
0	18813	45.65	1
0	18820	45.7	1
0	18821	45.7	2
0	18822	45.7	1
0	18823	45.7	1
0	18824	45.7	2
0	18825	45.7	1
0	18838	45.75	1
0	18839	45.75	2
0	18840	45.75	1
0	18847	45.8	1
0	18848	45.8	2
0	18849	45.8	1
0	18850	45.8	1
0	18851	45.8	2
0	18852	45.8	1
0	18865	45.85	1
0	18866	45.85	2
0	18867	45.85	1
0	18874	45.9	1
0	18875	45.9	2
0	18876	45.9	1
0	18877	45.9	1
0	18878	45.9	2
0	18879	45.9	1
0	18906	45.95	1
0	18907	45.95	2
0	18908	45.95	1
0	18929	46	1
0	18930	46	2
0	18931	46	1
0	18932	46	1
0	18933	46	2
0	18934	46	1
0	18947	46.05	1
0	18948	46.05	2
0	18949	46.05	1
0	18970	46.1	1
0	18971	46.1	2
0	18972	46.1	1
0	18973	46.1	1
0	18974	46.1	2
0	18975	46.1	1
0	18991	46.15	1
0	18992	46.15	2
0	18993	46.15	1
0	19000	46.2	1
0	19001	46.2	2
0	19002	46.2	1
0	19003	46.2	1
0	19004	46.2	2
0	19005	46.2	1
0	19018	46.25	1
0	19019	46.25	2
0	19020	46.25	1
0	19027	46.3	1
0	19028	46.3	2
0	19029	46.3	1
0	19030	46.3	1
0	19031	46.3	2
0	19032	46.3	1
0	19045	46.35	1
0	19046	46.35	2
0	19047	46.35	1
0	19054	46.4	1
0	19055	46.4	2
0	19056	46.4	1
0	19057	46.4	1
0	19058	46.4	2
0	19059	46.4	1
0	19072	46.45	1
0	19073	46.45	2
0	19074	46.45	1
0	19095	46.5	1
0	19096	46.5	2
0	19097	46.5	1
0	19098	46.5	1
0	19099	46.5	2
0	19100	46.5	1
0	19113	46.55	1
0	19114	46.55	2
0	19115	46.55	1
0	19122	46.6	1
0	19123	46.6	2
0	19124	46.6	1
0	19125	46.6	1
0	19126	46.6	2
0	19127	46.6	1
0	19154	46.65	1
0	19155	46.65	2
0	19156	46.65	1
0	19163	46.7	1
0	19164	46.7	2
0	19165	46.7	1
0	19166	46.7	1
0	19167	46.7	2
0	19168	46.7	1
0	19181	46.75	1
0	19182	46.75	2
0	19183	46.75	1
0	19190	46.8	1
0	19191	46.8	2
0	19192	46.8	1
0	19193	46.8	1
0	19194	46.8	2
0	19195	46.8	1
0	19208	46.85	1
0	19209	46.85	2
0	19210	46.85	1
0	19217	46.9	1
0	19218	46.9	2
0	19219	46.9	1
0	19220	46.9	1
0	19221	46.9	2
0	19222	46.9	1
0	19235	46.95	1
0	19236	46.95	2
0	19237	46.95	1
0	19244	47	1
0	19245	47	2
0	19246	47	1
0	19247	47	1
0	19248	47	2
0	19249	47	1
0	19276	47.05	1
0	19277	47.05	2
0	19278	47.05	1
0	19285	47.1	1
0	19286	47.1	2
0	19287	47.1	1
0	19288	47.1	1
0	19289	47.1	2
0	19290	47.1	1
0	19303	47.15	1
0	19304	47.15	2
0	19305	47.15	1
0	19326	47.2	1
0	19327	47.2	2
0	19328	47.2	1
0	19329	47.2	1
0	19330	47.2	2
0	19331	47.2	1
0	19344	47.25	1
0	19345	47.25	2
0	19346	47.25	1
0	19353	47.3	1
0	19354	47.3	2
0	19355	47.3	1
0	19356	47.3	1
0	19357	47.3	2
0	19358	47.3	1
0	19371	47.35	1
0	19372	47.35	2
0	19373	47.35	1
0	19380	47.4	1
0	19381	47.4	2
0	19382	47.4	1
0	19383	47.4	1
0	19384	47.4	2
0	19385	47.4	1
0	19398	47.45	1
0	19399	47.45	2
0	19400	47.45	1
0	19407	47.5	1
0	19408	47.5	2
0	19409	47.5	1
0	19410	47.5	1
0	19411	47.5	2
0	19412	47.5	1
0	19425	47.55	1
0	19426	47.55	2
0	19427	47.55	1
0	19462	47.6	1
0	19463	47.6	2
0	19464	47.6	1
0	19465	47.6	1
0	19466	47.6	2
0	19467	47.6	1
0	19480	47.65	1
0	19481	47.65	2
0	19482	47.65	1
0	19489	47.7	1
0	19490	47.7	2
0	19491	47.7	1
0	19492	47.7	1
0	19493	47.7	2
0	19494	47.7	1
0	19535	47.75	1
0	19536	47.75	2
0	19537	47.75	1
0	19544	47.8	1
0	19545	47.8	2
0	19546	47.8	1
0	19547	47.8	1
0	19548	47.8	2
0	19549	47.8	1
0	19562	47.85	1
0	19563	47.85	2
0	19564	47.85	1
0	19571	47.9	1
0	19572	47.9	2
0	19573	47.9	1
0	19574	47.9	1
0	19575	47.9	2
0	19576	47.9	1
0	19589	47.95	1
0	19590	47.95	2
0	19591	47.95	1
0	19598	48	1
0	19599	48	2
0	19600	48	1
0	19601	48	1
0	19602	48	2
0	19603	48	1
0	19616	48.05	1
0	19617	48.05	2
0	19618	48.05	1
0	19625	48.1	1
0	19626	48.1	2
0	19627	48.1	1
0	19628	48.1	1
0	19629	48.1	2
0	19630	48.1	1
0	19671	48.15	1
0	19672	48.15	2
0	19673	48.15	1
0	19680	48.2	1
0	19681	48.2	2
0	19682	48.2	1
0	19683	48.2	1
0	19684	48.2	2
0	19685	48.2	1
0	19698	48.25	1
0	19699	48.25	2
0	19700	48.25	1
0	19731	48.3	1
0	19732	48.3	2
0	19733	48.3	1
0	19734	48.3	1
0	19735	48.3	2
0	19736	48.3	1
0	19749	48.35	1
0	19750	48.35	2
0	19751	48.35	1
0	19758	48.4	1
0	19759	48.4	2
0	19760	48.4	1
0	19761	48.4	1
0	19762	48.4	2
0	19763	48.4	1
0	19776	48.45	1
0	19777	48.45	2
0	19778	48.45	1
0	19785	48.5	1
0	19786	48.5	2
0	19787	48.5	1
0	19788	48.5	1
0	19789	48.5	2
0	19790	48.5	1
0	19803	48.55	1
0	19804	48.55	2
0	19805	48.55	1
0	19812	48.6	1
0	19813	48.6	2
0	19814	48.6	1
0	19815	48.6	1
0	19816	48.6	2
0	19817	48.6	1
0	19830	48.65	1
0	19831	48.65	2
0	19832	48.65	1
0	19867	48.7	1
0	19868	48.7	2
0	19869	48.7	1
0	19870	48.7	1
0	19871	48.7	2
0	19872	48.7	1
0	19885	48.75	1
0	19886	48.75	2
0	19887	48.75	1
0	19894	48.8	1
0	19895	48.8	2
0	19896	48.8	1
0	19897	48.8	1
0	19898	48.8	2
0	19899	48.8	1
0	19940	48.85	1
0	19941	48.85	2
0	19942	48.85	1
0	19949	48.9	1
0	19950	48.9	2
0	19951	48.9	1
0	19952	48.9	1
0	19953	48.9	2
0	19954	48.9	1
0	19967	48.95	1
0	19968	48.95	2
0	19969	48.95	1
0	19976	49	1
0	19977	49	2
0	19978	49	1
0	19979	49	1
0	19980	49	2
0	19981	49	1
0	19994	49.05	1
0	19995	49.05	2
0	19996	49.05	1
0	20003	49.1	1
0	20004	49.1	2
0	20005	49.1	1
0	20006	49.1	1
0	20007	49.1	2
0	20008	49.1	1
0	20021	49.15	1
0	20022	49.15	2
0	20023	49.15	1
0	20030	49.2	1
0	20031	49.2	2
0	20032	49.2	1
0	20033	49.2	1
0	20034	49.2	2
0	20035	49.2	1
0	20076	49.25	1
0	20077	49.25	2
0	20078	49.25	1
0	20085	49.3	1
0	20086	49.3	2
0	20087	49.3	1
0	20088	49.3	1
0	20089	49.3	2
0	20090	49.3	1
0	20103	49.35	1
0	20104	49.35	2
0	20105	49.35	1
0	20140	49.4	1
0	20141	49.4	2
0	20142	49.4	1
0	20143	49.4	1
0	20144	49.4	2
0	20145	49.4	1
0	20158	49.45	1
0	20159	49.45	2
0	20160	49.45	1
0	20167	49.5	1
0	20168	49.5	2
0	20169	49.5	1
0	20170	49.5	1
0	20171	49.5	2
0	20172	49.5	1
0	20185	49.55	1
0	20186	49.55	2
0	20187	49.55	1
0	20194	49.6	1
0	20195	49.6	2
0	20196	49.6	1
0	20197	49.6	1
0	20198	49.6	2
0	20199	49.6	1
0	20212	49.65	1
0	20213	49.65	2
0	20214	49.65	1
0	20221	49.7	1
0	20222	49.7	2
0	20223	49.7	1
0	20224	49.7	1
0	20225	49.7	2
0	20226	49.7	1
0	20239	49.75	1
0	20240	49.75	2
0	20241	49.75	1
0	20276	49.8	1
0	20277	49.8	2
0	20278	49.8	1
0	20279	49.8	1
0	20280	49.8	2
0	20281	49.8	1
0	20294	49.85	1
0	20295	49.85	2
0	20296	49.85	1
0	20303	49.9	1
0	20304	49.9	2
0	20305	49.9	1
0	20306	49.9	1
0	20307	49.9	2
0	20308	49.9	1
0	20349	49.95	1
0	20350	49.95	2
0	20351	49.95	1
0	20358	50	1
0	20359	50	2
0	20360	50	1
0	20361	50	1
0	20362	50	2
0	20363	50	1
1	19	0.1	-nan
1	39	0.101	-nan
1	41	0.102	-nan
1	43	0.103	-nan
1	45	0.104	-nan
1	47	0.105	-nan
1	49	0.106	-nan
1	51	0.107	-nan
1	53	0.108	-nan
1	55	0.109	-nan
1	57	0.11	-nan
1	59	0.111	-nan
1	61	0.112	-nan
1	63	0.113	-nan
1	65	0.114	-nan
1	67	0.115	-nan
1	69	0.116	-nan
1	71	0.117	-nan
1	73	0.118	-nan
1	75	0.119	-nan
1	77	0.12	-nan
1	79	0.121	-nan
1	81	0.122	-nan
1	83	0.123	-nan
1	85	0.124	-nan
1	87	0.125	-nan
1	89	0.126	-nan
1	91	0.127	-nan
1	93	0.128	-nan
1	95	0.129	-nan
1	97	0.13	-nan
1	99	0.131	-nan
1	101	0.132	-nan
1	103	0.133	-nan
1	105	0.134	-nan
1	107	0.135	-nan
1	109	0.136	-nan
1	111	0.137	-nan
1	113	0.138	-nan
1	115	0.139	-nan
1	117	0.14	-nan
1	119	0.141	-nan
1	121	0.142	-nan
1	123	0.143	-nan
1	125	0.144	-nan
1	127	0.145	-nan
1	129	0.146	-nan
1	131	0.147	-nan
1	133	0.148	-nan
1	135	0.149	-nan
1	140	0.15	-nan
1	148	0.151	-nan
1	150	0.152	-nan
1	152	0.153	-nan
1	154	0.154	-nan
1	156	0.155	-nan
1	158	0.156	-nan
1	160	0.157	-nan
1	162	0.158	-nan
1	164	0.159	-nan
1	166	0.16	-nan
1	168	0.161	-nan
1	170	0.162	-nan
1	172	0.163	-nan
1	174	0.164	-nan
1	176	0.165	-nan
1	178	0.166	-nan
1	180	0.167	-nan
1	182	0.168	-nan
1	184	0.169	-nan
1	186	0.17	-nan
1	188	0.171	-nan
1	190	0.172	-nan
1	192	0.173	-nan
1	194	0.174	-nan
1	196	0.175	-nan
1	198	0.176	-nan
1	200	0.177	-nan
1	202	0.178	-nan
1	204	0.179	-nan
1	206	0.18	-nan
1	208	0.181	-nan
1	210	0.182	-nan
1	212	0.183	-nan
1	214	0.184	-nan
1	216	0.185	-nan
1	218	0.186	-nan
1	220	0.187	-nan
1	222	0.188	-nan
1	224	0.189	-nan
1	226	0.19	-nan
1	228	0.191	-nan
1	230	0.192	-nan
1	232	0.193	-nan
1	234	0.194	-nan
1	236	0.195	-nan
1	238	0.196	-nan
1	240	0.197	-nan
1	242	0.198	-nan
1	244	0.199	-nan
2	966	1.688032534095	141
2	994	1.701872534095	282
2	1004	1.715712534095	423
2	1014	1.729552534095	564
2	1024	1.743392534095	705
2	1043	1.757232534095	846
2	1053	1.771072534095	987
2	1063	1.784912534095	1128
2	1073	1.798752534095	1269
2	1101	1.812592534095	1410
2	1111	1.826432534095	1551
2	1121	1.840272534095	1692
2	1140	1.854112534095	1833
2	1150	1.867952534095	1974
2	1160	1.881792534095	2115
2	1189	1.909472534095	2256
2	1199	1.923312534095	2397
2	1209	1.937152534095	2538
2	1228	1.950992534095	2679
2	1238	1.964832534095	2820
2	1248	1.978672534095	2961
2	1255	1.992512534095	3102
2	1283	2.006352534095	3243
2	1293	2.020192534095	3384
2	1303	2.034032534095	3525
2	1313	2.047872534095	3666
2	1332	2.061712534095	3807
2	1343	2.089392534095	3948
2	1371	2.103232534095	4089
2	1381	2.117072534095	4230
2	1391	2.130912534095	4371
2	1401	2.144752534095	4512
2	1420	2.158592534095	4653
2	1430	2.172432534095	4794
2	1440	2.186272534095	4935
2	1476	2.200112534095	5076
2	1490	2.213952534095	5217
2	1517	2.227792534095	5358
2	1531	2.241632534095	5499
2	1547	2.255472534095	5640
2	1557	2.269312534095	5781
2	1567	2.283152534095	5922
2	1574	2.296992534095	6063
2	1602	2.310832534095	6204
2	1612	2.324672534095	6345
2	1622	2.338512534095	6486
2	1641	2.352352534095	6627
2	1651	2.366192534095	6768
2	1661	2.380032534095	6909
2	1671	2.393872534095	7050
2	1699	2.407712534095	7191
2	1706	2.421552534095	7332
2	1716	2.435392534095	7473
2	1726	2.449232534095	7614
2	1745	2.463072534095	7755
2	1752	2.476912534095	7896
2	1762	2.490752534095	8037
2	1790	2.504592534095	8178
2	1800	2.518432534095	8319
2	1810	2.532272534095	8460
2	1820	2.546112534095	8601
2	1839	2.559952534095	8742
2	1849	2.573792534095	8883
2	1859	2.587632534095	9024
2	1887	2.601472534095	9165
2	1894	2.615312534095	9306
2	1904	2.629152534095	9447
2	1914	2.642992534095	9588
2	1933	2.656832534095	9729
2	1943	2.670672534095	9870
2	1953	2.684512534095	10011
2	1963	2.698352534095	10152
2	1991	2.712192534095	10293
2	2001	2.726032534095	10434
2	2011	2.739872534095	10575
2	2034	2.753712534095	10716
2	2068	2.767552534095	10857
2	2078	2.781392534095	10998
2	2088	2.795232534095	11139
2	2116	2.809072534095	11280
2	2126	2.822912534095	11421
2	2146	2.850592534095	11562
2	2156	2.864432534095	11703
2	2166	2.878272534095	11844
2	2176	2.892112534095	11985
2	2204	2.905952534095	12126
2	2214	2.919792534095	12267
2	2224	2.933632534095	12408
2	2234	2.947472534095	12549
2	2253	2.961312534095	12690
2	2263	2.975152534095	12831
2	2273	2.988992534095	12972
2	2301	3.002832534095	13113
2	2311	3.016672534095	13254
2	2318	3.030512534095	13395
2	2328	3.044352534095	13536
2	2347	3.058192534095	13677
2	2640	3.828453385287	13818
2	2650	3.842293385287	13959
2	2698	3.869973385287	14100
2	2708	3.883813385287	14241
2	2715	3.897653385287	14382
2	2743	3.911493385287	14523
2	2753	3.925333385287	14664
2	2763	3.939173385287	14805
2	2782	3.953013385287	14946
2	2792	3.966853385287	15087
2	2942	4.378453385287	15228
2	2952	4.392293385287	15369
2	3613	5.528453385287	15510
2	3623	5.542293385287	15651
2	3639	5.556133385287	15792
2	3647	5.583813385287	15933
2	3657	5.597653385287	16074
2	3685	5.611493385287	16215
2	3692	5.625333385287	16356
2	3702	5.639173385287	16497
2	3721	5.653013385287	16638
2	3731	5.666853385287	16779
2	3741	5.680693385287	16920
2	3751	5.694533385287	17061
2	3779	5.708373385287	17202
2	3789	5.722213385287	17343
2	3799	5.736053385287	17484
2	3809	5.749893385287	17625
2	3828	5.763733385287	17766
2	3838	5.777573385287	17907
2	3848	5.791413385287	18048
2	3876	5.805253385287	18189
2	3886	5.819093385287	18330
2	3896	5.832933385287	18471
2	3903	5.846773385287	18612
2	3922	5.860613385287	18753
2	3932	5.874453385287	18894
2	3942	5.888293385287	19035
2	3970	5.902133385287	19176
2	3980	5.915973385287	19317
2	3990	5.929813385287	19458
2	4000	5.943653385287	19599
2	4020	5.971333385287	19740
2	4030	5.985173385287	19881
2	4040	5.999013385287	20022
2	4079	6.012853385287	20163
2	4089	6.026693385287	20304
2	4096	6.040533385287	20445
2	4128	6.082053385287	20586
2	4138	6.095893385287	20727
2	4166	6.109733385287	20868
2	4176	6.123573385287	21009
2	4186	6.137413385287	21150
2	4205	6.151253385287	21291
2	4215	6.165093385287	21432
2	4225	6.178933385287	21573
2	4235	6.192773385287	21714
2	4263	6.206613385287	21855
2	4273	6.220453385287	21996
2	4283	6.234293385287	22137
2	4293	6.248133385287	22278
2	4312	6.261973385287	22419
2	4322	6.275813385287	22560
2	4332	6.289653385287	22701
2	4360	6.303493385287	22842
2	4370	6.317333385287	22983
2	4380	6.331173385287	23124
2	4390	6.345013385287	23265
2	4409	6.358853385287	23406
2	4419	6.372693385287	23547
2	4448	6.400373385287	23688
2	4458	6.414213385287	23829
2	4468	6.428053385287	23970
2	4478	6.441893385287	24111
2	4497	6.455733385287	24252
2	4507	6.469573385287	24393
2	4517	6.483413385287	24534
2	4527	6.497253385287	24675
2	4555	6.511093385287	24816
2	4562	6.524933385287	24957
2	4572	6.538773385287	25098
2	4593	6.552613385287	25239
2	4600	6.566453385287	25380
2	4610	6.580293385287	25521
2	4620	6.594133385287	25662
2	4647	6.607973385287	25803
2	4657	6.621813385287	25944
2	4667	6.635653385287	26085
2	4677	6.649493385287	26226
2	4696	6.663333385287	26367
2	4706	6.677173385287	26508
2	4716	6.691013385287	26649
2	4744	6.704853385287	26790
2	4754	6.718693385287	26931
2	4762	6.746373385287	27072
2	4781	6.760213385287	27213
2	4791	6.774053385287	27354
2	4801	6.787893385287	27495
2	4829	6.801733385287	27636
2	4839	6.815573385287	27777
2	4849	6.829413385287	27918
2	4859	6.843253385287	28059
2	4878	6.857093385287	28200
2	4888	6.870933385287	28341
2	4898	6.884773385287	28482
2	4908	6.898613385287	28623
2	5003	6.965242578373	28764
2	5013	6.979082578373	28905
2	5023	6.992922578373	29046
2	5052	7.020602578373	29187
2	5062	7.034442578373	29328
2	5072	7.048282578373	29469
2	5109	7.062122578373	29610
2	5119	7.075962578373	29751
2	5129	7.089802578373	29892
2	5157	7.103642578373	30033
2	5167	7.117482578373	30174
2	5177	7.131322578373	30315
2	5197	7.159002578373	30456
2	5267	7.238133385287	30597
2	5286	7.251973385287	30738
3	966	1.688032534095	141
3	994	1.701872534095	282
3	1004	1.715712534095	423
3	1014	1.729552534095	564
3	1024	1.743392534095	705
3	1043	1.757232534095	846
3	1053	1.771072534095	987
3	1063	1.784912534095	1128
3	1073	1.798752534095	1269
3	1101	1.812592534095	1410
3	1111	1.826432534095	1551
3	1121	1.840272534095	1692
3	1140	1.854112534095	1833
3	1150	1.867952534095	1974
3	1160	1.881792534095	2115
3	1189	1.909472534095	2256
3	1199	1.923312534095	2397
3	1209	1.937152534095	2538
3	1228	1.950992534095	2679
3	1238	1.964832534095	2820
3	1248	1.978672534095	2961
3	1255	1.992512534095	3102
3	1283	2.006352534095	3243
3	1293	2.020192534095	3384
3	1303	2.034032534095	3525
3	1313	2.047872534095	3666
3	1332	2.061712534095	3807
3	1343	2.089392534095	3948
3	1371	2.103232534095	4089
3	1381	2.117072534095	4230
3	1391	2.130912534095	4371
3	1401	2.144752534095	4512
3	1420	2.158592534095	4653
3	1430	2.172432534095	4794
3	1440	2.186272534095	4935
3	1476	2.200112534095	5076
3	1490	2.213952534095	5217
3	1517	2.227792534095	5358
3	1531	2.241632534095	5499
3	1547	2.255472534095	5640
3	1557	2.269312534095	5781
3	1567	2.283152534095	5922
3	1574	2.296992534095	6063
3	1602	2.310832534095	6204
3	1612	2.324672534095	6345
3	1622	2.338512534095	6486
3	1641	2.352352534095	6627
3	1651	2.366192534095	6768
3	1661	2.380032534095	6909
3	1671	2.393872534095	7050
3	1699	2.407712534095	7191
3	1706	2.421552534095	7332
3	1716	2.435392534095	7473
3	1726	2.449232534095	7614
3	1745	2.463072534095	7755
3	1752	2.476912534095	7896
3	1762	2.490752534095	8037
3	1790	2.504592534095	8178
3	1800	2.518432534095	8319
3	1810	2.532272534095	8460
3	1820	2.546112534095	8601
3	1839	2.559952534095	8742
3	1849	2.573792534095	8883
3	1859	2.587632534095	9024
3	1887	2.601472534095	9165
3	1894	2.615312534095	9306
3	1904	2.629152534095	9447
3	1914	2.642992534095	9588
3	1933	2.656832534095	9729
3	1943	2.670672534095	9870
3	1953	2.684512534095	10011
3	1963	2.698352534095	10152
3	1991	2.712192534095	10293
3	2001	2.726032534095	10434
3	2011	2.739872534095	10575
3	2034	2.753712534095	10716
3	2068	2.767552534095	10857
3	2078	2.781392534095	10998
3	2088	2.795232534095	11139
3	2116	2.809072534095	11280
3	2126	2.822912534095	11421
3	2146	2.850592534095	11562
3	2156	2.864432534095	11703
3	2166	2.878272534095	11844
3	2176	2.892112534095	11985
3	2204	2.905952534095	12126
3	2214	2.919792534095	12267
3	2224	2.933632534095	12408
3	2234	2.947472534095	12549
3	2253	2.961312534095	12690
3	2263	2.975152534095	12831
3	2273	2.988992534095	12972
3	2301	3.002832534095	13113
3	2311	3.016672534095	13254
3	2318	3.030512534095	13395
3	2328	3.044352534095	13536
3	2347	3.058192534095	13677
3	2640	3.828453385287	13818
3	2650	3.842293385287	13959
3	2698	3.869973385287	14100
3	2708	3.883813385287	14241
3	2715	3.897653385287	14382
3	2743	3.911493385287	14523
3	2753	3.925333385287	14664
3	2763	3.939173385287	14805
3	2782	3.953013385287	14946
3	2792	3.966853385287	15087
3	2942	4.378453385287	15228
3	2952	4.392293385287	15369
3	3613	5.528453385287	15510
3	3623	5.542293385287	15651
3	3639	5.556133385287	15792
3	3647	5.583813385287	15933
3	3657	5.597653385287	16074
3	3685	5.611493385287	16215
3	3692	5.625333385287	16356
3	3702	5.639173385287	16497
3	3721	5.653013385287	16638
3	3731	5.666853385287	16779
3	3741	5.680693385287	16920
3	3751	5.694533385287	17061
3	3779	5.708373385287	17202
3	3789	5.722213385287	17343
3	3799	5.736053385287	17484
3	3809	5.749893385287	17625
3	3828	5.763733385287	17766
3	3838	5.777573385287	17907
3	3848	5.791413385287	18048
3	3876	5.805253385287	18189
3	3886	5.819093385287	18330
3	3896	5.832933385287	18471
3	3903	5.846773385287	18612
3	3922	5.860613385287	18753
3	3932	5.874453385287	18894
3	3942	5.888293385287	19035
3	3970	5.902133385287	19176
3	3980	5.915973385287	19317
3	3990	5.929813385287	19458
3	4000	5.943653385287	19599
3	4020	5.971333385287	19740
3	4030	5.985173385287	19881
3	4040	5.999013385287	20022
3	4079	6.012853385287	20163
3	4089	6.026693385287	20304
3	4096	6.040533385287	20445
3	4128	6.082053385287	20586
3	4138	6.095893385287	20727
3	4166	6.109733385287	20868
3	4176	6.123573385287	21009
3	4186	6.137413385287	21150
3	4205	6.151253385287	21291
3	4215	6.165093385287	21432
3	4225	6.178933385287	21573
3	4235	6.192773385287	21714
3	4263	6.206613385287	21855
3	4273	6.220453385287	21996
3	4283	6.234293385287	22137
3	4293	6.248133385287	22278
3	4312	6.261973385287	22419
3	4322	6.275813385287	22560
3	4332	6.289653385287	22701
3	4360	6.303493385287	22842
3	4370	6.317333385287	22983
3	4380	6.331173385287	23124
3	4390	6.345013385287	23265
3	4409	6.358853385287	23406
3	4419	6.372693385287	23547
3	4448	6.400373385287	23688
3	4458	6.414213385287	23829
3	4468	6.428053385287	23970
3	4478	6.441893385287	24111
3	4497	6.455733385287	24252
3	4507	6.469573385287	24393
3	4517	6.483413385287	24534
3	4527	6.497253385287	24675
3	4555	6.511093385287	24816
3	4562	6.524933385287	24957
3	4572	6.538773385287	25098
3	4593	6.552613385287	25239
3	4600	6.566453385287	25380
3	4610	6.580293385287	25521
3	4620	6.594133385287	25662
3	4647	6.607973385287	25803
3	4657	6.621813385287	25944
3	4667	6.635653385287	26085
3	4677	6.649493385287	26226
3	4696	6.663333385287	26367
3	4706	6.677173385287	26508
3	4716	6.691013385287	26649
3	4744	6.704853385287	26790
3	4754	6.718693385287	26931
3	4762	6.746373385287	27072
3	4781	6.760213385287	27213
3	4791	6.774053385287	27354
3	4801	6.787893385287	27495
3	4829	6.801733385287	27636
3	4839	6.815573385287	27777
3	4849	6.829413385287	27918
3	4859	6.843253385287	28059
3	4878	6.857093385287	28200
3	4888	6.870933385287	28341
3	4898	6.884773385287	28482
3	4908	6.898613385287	28623
3	5003	6.965242578373	28764
3	5013	6.979082578373	28905
3	5023	6.992922578373	29046
3	5052	7.020602578373	29187
3	5062	7.034442578373	29328
3	5072	7.048282578373	29469
3	5109	7.062122578373	29610
3	5119	7.075962578373	29751
3	5129	7.089802578373	29892
3	5157	7.103642578373	30033
3	5167	7.117482578373	30174
3	5177	7.131322578373	30315
3	5197	7.159002578373	30456
3	5267	7.238133385287	30597
3	5286	7.251973385287	30738

