version 2
run A1-0-20191010-15:53:05-11638
attr configname A1
attr datetime 20191010-15:53:05
attr experiment A1
attr inifile SimV3.ini
attr iterationvars ""
attr iterationvarsf ""
attr measurement ""
attr network NetworkTormV2
attr processid 11638
attr repetition 0
attr replication #0
attr resultdir results
attr runnumber 0
attr seedset 0
param **.mobility.traceFile "\"paths/A.movements\""
param **.numNodes 3
param **.wirelessIfc.wirelessRange 40m
param **.bluetoothIfc.wirelessRange 40m
param **.numNodes 2
param **.application.usedRNG 1
param **.application.dataGenerationInterval 1s
param **.application.dataSizeInBytes 10
param **.application.ttl 999999s
param **application.destinationAddr "\"Wf:00:00:00:00:02\""
param **application.destinationBTAddr "\"Bt:00:00:00:00:02\""
param **application.nodesThatGen true
param **application.nodesGenMsg "\"0\""
param **application.startMultipleMsg true
param **application.numMultipleMsg 100
param **application.hopsListSize 50
param **.application.endGeneratingMsg 999999s
param **.routingLayer "\"RoutingLqeGw\""
param **.routing.maximumCacheSize 5000byte
param **.routing.maximumHopCount 25
param **.routing.useTTL false
param **.routing.waitBFsend 0.5
param **.routing.max_age 999999s
param **.routing.gateway_list "\"\""
param **.routing.actual_gateway "\"\""
param **.routing.gwCheckPeriod 5s
param **.neighboring.antiEntropyInterval 500ms
param **.neighboring.maximumRandomBackoffDuration 1s
param **.neighboring.delayPerDataMsg 0.1
param **neighboring.usedRNG 2
param **.neighboring.GWAddr "\"Wf:00:00:00:00:02\""
param **.neighboring.sendWifiFirst true
param **.neighboring.maxLengthGraph 20
param **.neighboring.max_age 999999s
param **.neighboring.max_absent_time 1s
param **.wirelessIfc.wirelessRange 40m
param **.wirelessIfc.neighbourScanInterval 50ms
param **.wirelessIfc.bandwidthBitRate 100000bps
param **.wirelessIfc.wirelessHeaderSize 32byte
param **.wirelessIfc.minSSI -90
param **.wirelessIfc.limitQueueTime 400ms
param **.wirelessIfc.my_limit_rate 0bps
param **.bluetoothIfc.wirelessRange 40m
param **.bluetoothIfc.neighbourScanInterval 100ms
param **.bluetoothIfc.bandwidthBitRate 100000bps
param **.bluetoothIfc.wirelessHeaderSize 16byte
param **.bluetoothIfc.minSSI -90
param **.mobilityType "\"BonnMotionMobility\""
param **.mobility.traceFile "\"paths/Moves2.movements\""
param **.mobility.is3D false
param **.mobility.nodeId -1

vector 0 NetworkTormV2 neighbourhoodSize:vector ETV
attr source neighbourhoodSize
vector 1 NetworkTormV2 deliveryRatio:vector ETV
attr source sum(totalDataBytesReceived)/sum(totalDataBytesReceivableByAllNodes)
vector 2 NetworkTormV2 dataBytesReceivedSum:vector ETV
attr source sum(dataBytesReceived)
vector 3 NetworkTormV2 totalBytesReceivedSum:vector ETV
attr source sum(totalBytesReceived)
0	10	0.05	1
0	11	0.05	2
0	12	0.05	1
0	26	0.1	1
0	27	0.1	2
0	28	0.1	1
0	29	0.1	1
0	30	0.1	2
0	31	0.1	1
0	51	0.15	1
0	52	0.15	2
0	53	0.15	1
0	66	0.2	1
0	67	0.2	2
0	68	0.2	1
0	69	0.2	1
0	70	0.2	2
0	71	0.2	1
0	90	0.25	1
0	91	0.25	2
0	92	0.25	1
0	105	0.3	1
0	106	0.3	2
0	107	0.3	1
0	108	0.3	1
0	109	0.3	2
0	110	0.3	1
0	129	0.35	1
0	130	0.35	2
0	131	0.35	1
0	144	0.4	1
0	145	0.4	2
0	146	0.4	1
0	147	0.4	1
0	148	0.4	2
0	149	0.4	1
0	168	0.45	1
0	169	0.45	2
0	170	0.45	1
0	183	0.5	1
0	184	0.5	2
0	185	0.5	1
0	186	0.5	1
0	187	0.5	2
0	188	0.5	1
0	207	0.55	1
0	208	0.55	2
0	209	0.55	1
0	222	0.6	1
0	223	0.6	2
0	224	0.6	1
0	225	0.6	1
0	226	0.6	2
0	227	0.6	1
0	246	0.65	1
0	247	0.65	2
0	248	0.65	1
0	261	0.7	1
0	262	0.7	2
0	263	0.7	1
0	264	0.7	1
0	265	0.7	2
0	266	0.7	1
0	285	0.75	1
0	286	0.75	2
0	287	0.75	1
0	300	0.8	1
0	301	0.8	2
0	302	0.8	1
0	303	0.8	1
0	304	0.8	2
0	305	0.8	1
0	324	0.85	1
0	325	0.85	2
0	326	0.85	1
0	339	0.9	1
0	340	0.9	2
0	341	0.9	1
0	342	0.9	1
0	343	0.9	2
0	344	0.9	1
0	363	0.95	1
0	364	0.95	2
0	365	0.95	1
0	378	1	1
0	379	1	2
0	380	1	1
0	381	1	1
0	382	1	2
0	383	1	1
0	402	1.05	1
0	403	1.05	2
0	404	1.05	1
0	418	1.1	1
0	419	1.1	2
0	420	1.1	1
0	421	1.1	1
0	422	1.1	2
0	423	1.1	1
0	519	1.15	1
0	520	1.15	2
0	521	1.15	1
0	534	1.2	1
0	535	1.2	2
0	536	1.2	1
0	537	1.2	1
0	538	1.2	2
0	539	1.2	1
0	558	1.25	1
0	559	1.25	2
0	560	1.25	1
0	573	1.3	1
0	574	1.3	2
0	575	1.3	1
0	576	1.3	1
0	577	1.3	2
0	578	1.3	1
0	597	1.35	1
0	598	1.35	2
0	599	1.35	1
0	612	1.4	1
0	613	1.4	2
0	614	1.4	1
0	615	1.4	1
0	616	1.4	2
0	617	1.4	1
0	636	1.45	1
0	637	1.45	2
0	638	1.45	1
0	651	1.5	1
0	652	1.5	2
0	653	1.5	1
0	654	1.5	1
0	655	1.5	2
0	656	1.5	1
0	675	1.55	1
0	676	1.55	2
0	677	1.55	1
0	690	1.6	1
0	691	1.6	2
0	692	1.6	1
0	693	1.6	1
0	694	1.6	2
0	695	1.6	1
0	714	1.65	1
0	715	1.65	2
0	716	1.65	1
0	805	1.7	1
0	806	1.7	2
0	807	1.7	1
0	808	1.7	1
0	809	1.7	2
0	810	1.7	1
0	829	1.75	1
0	830	1.75	2
0	831	1.75	1
0	844	1.8	1
0	845	1.8	2
0	846	1.8	1
0	847	1.8	1
0	848	1.8	2
0	849	1.8	1
0	868	1.85	1
0	869	1.85	2
0	870	1.85	1
0	883	1.9	1
0	884	1.9	2
0	885	1.9	1
0	886	1.9	1
0	887	1.9	2
0	888	1.9	1
0	907	1.95	1
0	908	1.95	2
0	909	1.95	1
0	922	2	1
0	923	2	2
0	924	2	1
0	925	2	1
0	926	2	2
0	927	2	1
0	946	2.05	1
0	947	2.05	2
0	948	2.05	1
0	962	2.1	1
0	963	2.1	2
0	964	2.1	1
0	965	2.1	1
0	966	2.1	2
0	967	2.1	1
0	987	2.15	1
0	988	2.15	2
0	989	2.15	1
0	1002	2.2	1
0	1003	2.2	2
0	1004	2.2	1
0	1005	2.2	1
0	1006	2.2	2
0	1007	2.2	1
0	1102	2.25	1
0	1103	2.25	2
0	1104	2.25	1
0	1117	2.3	1
0	1118	2.3	2
0	1119	2.3	1
0	1120	2.3	1
0	1121	2.3	2
0	1122	2.3	1
0	1141	2.35	1
0	1142	2.35	2
0	1143	2.35	1
0	1156	2.4	1
0	1157	2.4	2
0	1158	2.4	1
0	1159	2.4	1
0	1160	2.4	2
0	1161	2.4	1
0	1180	2.45	1
0	1181	2.45	2
0	1182	2.45	1
0	1195	2.5	1
0	1196	2.5	2
0	1197	2.5	1
0	1198	2.5	1
0	1199	2.5	2
0	1200	2.5	1
0	1219	2.55	1
0	1220	2.55	2
0	1221	2.55	1
0	1234	2.6	1
0	1235	2.6	2
0	1236	2.6	1
0	1237	2.6	1
0	1238	2.6	2
0	1239	2.6	1
0	1258	2.65	1
0	1259	2.65	2
0	1260	2.65	1
0	1273	2.7	1
0	1274	2.7	2
0	1275	2.7	1
0	1276	2.7	1
0	1277	2.7	2
0	1278	2.7	1
0	1297	2.75	1
0	1298	2.75	2
0	1299	2.75	1
0	1388	2.8	1
0	1389	2.8	2
0	1390	2.8	1
0	1391	2.8	1
0	1392	2.8	2
0	1393	2.8	1
0	1412	2.85	1
0	1413	2.85	2
0	1414	2.85	1
0	1427	2.9	1
0	1428	2.9	2
0	1429	2.9	1
0	1430	2.9	1
0	1431	2.9	2
0	1432	2.9	1
0	1451	2.95	1
0	1452	2.95	2
0	1453	2.95	1
0	1466	3	1
0	1467	3	2
0	1468	3	1
0	1469	3	1
0	1470	3	2
0	1471	3	1
0	1490	3.05	1
0	1491	3.05	2
0	1492	3.05	1
0	1506	3.1	1
0	1507	3.1	2
0	1508	3.1	1
0	1509	3.1	1
0	1510	3.1	2
0	1511	3.1	1
0	1531	3.15	1
0	1532	3.15	2
0	1533	3.15	1
0	1546	3.2	1
0	1547	3.2	2
0	1548	3.2	1
0	1549	3.2	1
0	1550	3.2	2
0	1551	3.2	1
0	1570	3.25	1
0	1571	3.25	2
0	1572	3.25	1
0	1585	3.3	1
0	1586	3.3	2
0	1587	3.3	1
0	1588	3.3	1
0	1589	3.3	2
0	1590	3.3	1
0	1685	3.35	1
0	1686	3.35	2
0	1687	3.35	1
0	1700	3.4	1
0	1701	3.4	2
0	1702	3.4	1
0	1703	3.4	1
0	1704	3.4	2
0	1705	3.4	1
0	1724	3.45	1
0	1725	3.45	2
0	1726	3.45	1
0	1739	3.5	1
0	1740	3.5	2
0	1741	3.5	1
0	1742	3.5	1
0	1743	3.5	2
0	1744	3.5	1
0	1763	3.55	1
0	1764	3.55	2
0	1765	3.55	1
0	1778	3.6	1
0	1779	3.6	2
0	1780	3.6	1
0	1781	3.6	1
0	1782	3.6	2
0	1783	3.6	1
0	1802	3.65	1
0	1803	3.65	2
0	1804	3.65	1
0	1817	3.7	1
0	1818	3.7	2
0	1819	3.7	1
0	1820	3.7	1
0	1821	3.7	2
0	1822	3.7	1
0	1841	3.75	1
0	1842	3.75	2
0	1843	3.75	1
0	1856	3.8	1
0	1857	3.8	2
0	1858	3.8	1
0	1859	3.8	1
0	1860	3.8	2
0	1861	3.8	1
0	1880	3.85	1
0	1881	3.85	2
0	1882	3.85	1
0	1967	3.9	1
0	1968	3.9	2
0	1969	3.9	1
0	1970	3.9	1
0	1971	3.9	2
0	1972	3.9	1
0	1991	3.95	1
0	1992	3.95	2
0	1993	3.95	1
0	2006	4	1
0	2007	4	2
0	2008	4	1
0	2009	4	1
0	2010	4	2
0	2011	4	1
0	2030	4.05	1
0	2031	4.05	2
0	2032	4.05	1
0	2046	4.1	1
0	2047	4.1	2
0	2048	4.1	1
0	2049	4.1	1
0	2050	4.1	2
0	2051	4.1	1
0	2071	4.15	1
0	2072	4.15	2
0	2073	4.15	1
0	2086	4.2	1
0	2087	4.2	2
0	2088	4.2	1
0	2089	4.2	1
0	2090	4.2	2
0	2091	4.2	1
0	2110	4.25	1
0	2111	4.25	2
0	2112	4.25	1
0	2125	4.3	1
0	2126	4.3	2
0	2127	4.3	1
0	2128	4.3	1
0	2129	4.3	2
0	2130	4.3	1
0	2149	4.35	1
0	2150	4.35	2
0	2151	4.35	1
0	2164	4.4	1
0	2165	4.4	2
0	2166	4.4	1
0	2167	4.4	1
0	2168	4.4	2
0	2169	4.4	1
0	2264	4.45	1
0	2265	4.45	2
0	2266	4.45	1
0	2279	4.5	1
0	2280	4.5	2
0	2281	4.5	1
0	2282	4.5	1
0	2283	4.5	2
0	2284	4.5	1
0	2303	4.55	1
0	2304	4.55	2
0	2305	4.55	1
0	2318	4.6	1
0	2319	4.6	2
0	2320	4.6	1
0	2321	4.6	1
0	2322	4.6	2
0	2323	4.6	1
0	2342	4.65	1
0	2343	4.65	2
0	2344	4.65	1
0	2357	4.7	1
0	2358	4.7	2
0	2359	4.7	1
0	2360	4.7	1
0	2361	4.7	2
0	2362	4.7	1
0	2381	4.75	1
0	2382	4.75	2
0	2383	4.75	1
0	2396	4.8	1
0	2397	4.8	2
0	2398	4.8	1
0	2399	4.8	1
0	2400	4.8	2
0	2401	4.8	1
0	2420	4.85	1
0	2421	4.85	2
0	2422	4.85	1
0	2435	4.9	1
0	2436	4.9	2
0	2437	4.9	1
0	2438	4.9	1
0	2439	4.9	2
0	2440	4.9	1
0	2459	4.95	1
0	2460	4.95	2
0	2461	4.95	1
0	2539	5	1
0	2540	5	2
0	2541	5	1
0	2542	5	1
0	2543	5	2
0	2544	5	1
0	2563	5.05	1
0	2564	5.05	2
0	2565	5.05	1
0	2579	5.1	1
0	2580	5.1	2
0	2581	5.1	1
0	2582	5.1	1
0	2583	5.1	2
0	2584	5.1	1
0	2604	5.15	1
0	2605	5.15	2
0	2606	5.15	1
0	2619	5.2	1
0	2620	5.2	2
0	2621	5.2	1
0	2622	5.2	1
0	2623	5.2	2
0	2624	5.2	1
0	2643	5.25	1
0	2644	5.25	2
0	2645	5.25	1
0	2658	5.3	1
0	2659	5.3	2
0	2660	5.3	1
0	2661	5.3	1
0	2662	5.3	2
0	2663	5.3	1
0	2682	5.35	1
0	2683	5.35	2
0	2684	5.35	1
0	2697	5.4	1
0	2698	5.4	2
0	2699	5.4	1
0	2700	5.4	1
0	2701	5.4	2
0	2702	5.4	1
0	2721	5.45	1
0	2722	5.45	2
0	2723	5.45	1
0	2739	5.5	1
0	2740	5.5	2
0	2741	5.5	1
0	2742	5.5	1
0	2743	5.5	2
0	2744	5.5	1
0	2850	5.55	1
0	2851	5.55	2
0	2852	5.55	1
0	2910	5.6	1
0	2911	5.6	2
0	2912	5.6	1
0	2913	5.6	1
0	2914	5.6	2
0	2915	5.6	1
0	2949	5.65	1
0	2950	5.65	2
0	2951	5.65	1
0	2983	5.7	1
0	2984	5.7	2
0	2985	5.7	1
0	2986	5.7	1
0	2987	5.7	2
0	2988	5.7	1
0	3007	5.75	1
0	3008	5.75	2
0	3009	5.75	1
0	3022	5.8	1
0	3023	5.8	2
0	3024	5.8	1
0	3025	5.8	1
0	3026	5.8	2
0	3027	5.8	1
0	3046	5.85	1
0	3047	5.85	2
0	3048	5.85	1
0	3061	5.9	1
0	3062	5.9	2
0	3063	5.9	1
0	3064	5.9	1
0	3065	5.9	2
0	3066	5.9	1
0	3085	5.95	1
0	3086	5.95	2
0	3087	5.95	1
0	3103	6	1
0	3104	6	2
0	3105	6	1
0	3106	6	1
0	3107	6	2
0	3108	6	1
0	3127	6.05	1
0	3128	6.05	2
0	3129	6.05	1
0	3214	6.1	1
0	3215	6.1	2
0	3216	6.1	1
0	3217	6.1	1
0	3218	6.1	2
0	3219	6.1	1
0	3239	6.15	1
0	3240	6.15	2
0	3241	6.15	1
0	3254	6.2	1
0	3255	6.2	2
0	3256	6.2	1
0	3257	6.2	1
0	3258	6.2	2
0	3259	6.2	1
0	3297	6.25	1
0	3298	6.25	2
0	3299	6.25	1
0	3312	6.3	1
0	3313	6.3	2
0	3314	6.3	1
0	3315	6.3	1
0	3316	6.3	2
0	3317	6.3	1
0	3336	6.35	1
0	3337	6.35	2
0	3338	6.35	1
0	3351	6.4	1
0	3352	6.4	2
0	3353	6.4	1
0	3354	6.4	1
0	3355	6.4	2
0	3356	6.4	1
0	3375	6.45	1
0	3376	6.45	2
0	3377	6.45	1
0	3393	6.5	1
0	3394	6.5	2
0	3395	6.5	1
0	3396	6.5	1
0	3397	6.5	2
0	3398	6.5	1
0	3417	6.55	1
0	3418	6.55	2
0	3419	6.55	1
0	3432	6.6	1
0	3433	6.6	2
0	3434	6.6	1
0	3435	6.6	1
0	3436	6.6	2
0	3437	6.6	1
0	3535	6.65	1
0	3536	6.65	2
0	3537	6.65	1
0	3550	6.7	1
0	3551	6.7	2
0	3552	6.7	1
0	3553	6.7	1
0	3554	6.7	2
0	3555	6.7	1
0	3574	6.75	1
0	3575	6.75	2
0	3576	6.75	1
0	3608	6.8	1
0	3609	6.8	2
0	3610	6.8	1
0	3611	6.8	1
0	3612	6.8	2
0	3613	6.8	1
0	3632	6.85	1
0	3633	6.85	2
0	3634	6.85	1
0	3647	6.9	1
0	3648	6.9	2
0	3649	6.9	1
0	3650	6.9	1
0	3651	6.9	2
0	3652	6.9	1
0	3671	6.95	1
0	3672	6.95	2
0	3673	6.95	1
0	3689	7	1
0	3690	7	2
0	3691	7	1
0	3692	7	1
0	3693	7	2
0	3694	7	1
0	3713	7.05	1
0	3714	7.05	2
0	3715	7.05	1
0	3729	7.1	1
0	3730	7.1	2
0	3731	7.1	1
0	3732	7.1	1
0	3733	7.1	2
0	3734	7.1	1
0	3754	7.15	1
0	3755	7.15	2
0	3756	7.15	1
0	3822	7.2	1
0	3823	7.2	2
0	3824	7.2	1
0	3825	7.2	1
0	3826	7.2	2
0	3827	7.2	1
0	3846	7.25	1
0	3847	7.25	2
0	3848	7.25	1
0	3861	7.3	1
0	3862	7.3	2
0	3863	7.3	1
0	3864	7.3	1
0	3865	7.3	2
0	3866	7.3	1
0	3904	7.35	1
0	3905	7.35	2
0	3906	7.35	1
0	3919	7.4	1
0	3920	7.4	2
0	3921	7.4	1
0	3922	7.4	1
0	3923	7.4	2
0	3924	7.4	1
0	3943	7.45	1
0	3944	7.45	2
0	3945	7.45	1
0	3958	7.5	1
0	3959	7.5	2
0	3960	7.5	1
0	3961	7.5	1
0	3962	7.5	2
0	3963	7.5	1
0	3982	7.55	1
0	3983	7.55	2
0	3984	7.55	1
0	3997	7.6	1
0	3998	7.6	2
0	3999	7.6	1
0	4000	7.6	1
0	4001	7.6	2
0	4002	7.6	1
0	4021	7.65	1
0	4022	7.65	2
0	4023	7.65	1
0	4036	7.7	1
0	4037	7.7	2
0	4038	7.7	1
0	4039	7.7	1
0	4040	7.7	2
0	4041	7.7	1
0	4145	7.75	1
0	4146	7.75	2
0	4147	7.75	1
0	4166	7.8	1
0	4167	7.8	2
0	4168	7.8	1
0	4169	7.8	1
0	4170	7.8	2
0	4171	7.8	1
0	4190	7.85	1
0	4191	7.85	2
0	4192	7.85	1
0	4224	7.9	1
0	4225	7.9	2
0	4226	7.9	1
0	4227	7.9	1
0	4228	7.9	2
0	4229	7.9	1
0	4248	7.95	1
0	4249	7.95	2
0	4250	7.95	1
0	4263	8	1
0	4264	8	2
0	4265	8	1
0	4266	8	1
0	4267	8	2
0	4268	8	1
1	25	0.1	-nan
1	417	1.1	-nan
1	961	2.1	-nan
1	1505	3.1	-nan
1	2045	4.1	-nan
1	2578	5.1	-nan
1	3213	6.1	-nan
1	3728	7.1	-nan
2	2837	5.533626728067	141
2	2870	5.561306728067	282
2	2885	5.575146728067	423
2	2900	5.588986728067	564
2	2939	5.602826728067	705
2	3206	6.083626728067	846
2	3522	6.633626728067	987
2	4126	7.733626728067	1128
2	4141	7.747466728067	1269
3	2837	5.533626728067	141
3	2870	5.561306728067	282
3	2885	5.575146728067	423
3	2900	5.588986728067	564
3	2939	5.602826728067	705
3	3206	6.083626728067	846
3	3522	6.633626728067	987
3	4126	7.733626728067	1128
3	4141	7.747466728067	1269

