version 2
run A1-0-20190921-23:43:45-21435
attr configname A1
attr datetime 20190921-23:43:45
attr experiment A1
attr inifile SimV2.ini
attr iterationvars ""
attr iterationvarsf ""
attr measurement ""
attr network NetworkTormV2
attr processid 21435
attr repetition 0
attr replication #0
attr resultdir results
attr runnumber 0
attr seedset 0
param **.mobility.traceFile "\"paths/A.movements\""
param **.numNodes 3
param **.wirelessIfc.wirelessRange 40m
param **.bluetoothIfc.wirelessRange 40m
param **.numNodes 2
param **.application.usedRNG 1
param **.application.dataGenerationInterval 1ms
param **.application.dataSizeInBytes 10
param **.application.ttl 999999s
param **application.destinationAddr "\"Wf:00:00:00:00:02\""
param **application.destinationBTAddr "\"Bt:00:00:00:00:02\""
param **application.nodesThatGen true
param **application.nodesGenMsg "\"0\""
param **application.startMultipleMsg true
param **application.numMultipleMsg 100
param **application.hopsListSize 50
param **.application.endGeneratingMsg 999999s
param **.routingLayer "\"EpidemicRoutingLayer\""
param **.routing.maximumCacheSize 5000byte
param **.routing.maximumHopCount 25
param **.routing.useTTL false
param **.routing.waitBFsend 0.5
param **.routing.max_age 999999s
param **.routing.gateway_list "\"Wf:00:00:00:00:02;0|.\""
param **.routing.actual_gateway "\"Wf:00:00:00:00:02\""
param **.neighboring.antiEntropyInterval 500ms
param **.neighboring.maximumRandomBackoffDuration 1s
param **.neighboring.delayPerDataMsg 0.1
param **neighboring.usedRNG 2
param **.neighboring.GWAddr "\"Wf:00:00:00:00:02\""
param **.neighboring.sendWifiFirst true
param **.neighboring.maxLengthGraph 20
param **.neighboring.max_age 999999s
param **.neighboring.max_absent_time 1s
param **.wirelessIfc.wirelessRange 15m
param **.wirelessIfc.neighbourScanInterval 50ms
param **.wirelessIfc.bandwidthBitRate 100000bps
param **.wirelessIfc.wirelessHeaderSize 32byte
param **.wirelessIfc.minSSI -90
param **.wirelessIfc.limitQueueTime 400ms
param **.wirelessIfc.my_limit_rate 0bps
param **.bluetoothIfc.wirelessRange 15m
param **.bluetoothIfc.neighbourScanInterval 100ms
param **.bluetoothIfc.bandwidthBitRate 100000bps
param **.bluetoothIfc.wirelessHeaderSize 16byte
param **.bluetoothIfc.minSSI -90
param **.mobilityType "\"BonnMotionMobility\""
param **.mobility.traceFile "\"paths/Moves2.movements\""
param **.mobility.is3D false
param **.mobility.nodeId -1

vector 0 NetworkTormV2 neighbourhoodSize:vector ETV
attr source neighbourhoodSize
vector 1 NetworkTormV2 deliveryRatio:vector ETV
attr source sum(totalDataBytesReceived)/sum(totalDataBytesReceivableByAllNodes)
vector 2 NetworkTormV2 dataBytesReceivedSum:vector ETV
attr source sum(dataBytesReceived)
vector 3 NetworkTormV2 totalBytesReceivedSum:vector ETV
attr source sum(totalBytesReceived)
0	10	0.05	1
0	11	0.05	2
0	12	0.05	1
0	20	0.1	1
0	21	0.1	2
0	22	0.1	1
0	23	0.1	1
0	24	0.1	2
0	25	0.1	1
0	137	0.15	1
0	138	0.15	2
0	139	0.15	1
0	246	0.2	1
0	247	0.2	2
0	248	0.2	1
0	249	0.2	1
0	250	0.2	2
0	251	0.2	1
0	264	0.25	1
0	265	0.25	2
0	266	0.25	1
0	273	0.3	1
0	274	0.3	2
0	275	0.3	1
0	276	0.3	1
0	277	0.3	2
0	278	0.3	1
0	291	0.35	1
0	292	0.35	2
0	293	0.35	1
0	300	0.4	1
0	301	0.4	2
0	302	0.4	1
0	303	0.4	1
0	304	0.4	2
0	305	0.4	1
0	318	0.45	1
0	319	0.45	2
0	320	0.45	1
0	327	0.5	1
0	328	0.5	2
0	329	0.5	1
0	330	0.5	1
0	331	0.5	2
0	332	0.5	1
0	345	0.55	1
0	346	0.55	2
0	347	0.55	1
0	354	0.6	1
0	355	0.6	2
0	356	0.6	1
0	357	0.6	1
0	358	0.6	2
0	359	0.6	1
0	372	0.65	1
0	373	0.65	2
0	374	0.65	1
0	381	0.7	1
0	382	0.7	2
0	383	0.7	1
0	384	0.7	1
0	385	0.7	2
0	386	0.7	1
0	399	0.75	1
0	400	0.75	2
0	401	0.75	1
0	408	0.8	1
0	409	0.8	2
0	410	0.8	1
0	411	0.8	1
0	412	0.8	2
0	413	0.8	1
0	426	0.85	1
0	427	0.85	2
0	428	0.85	1
0	435	0.9	1
0	436	0.9	2
0	437	0.9	1
0	438	0.9	1
0	439	0.9	2
0	440	0.9	1
0	453	0.95	1
0	454	0.95	2
0	455	0.95	1
0	462	1	1
0	463	1	2
0	464	1	1
0	465	1	1
0	466	1	2
0	467	1	1
0	480	1.05	1
0	481	1.05	2
0	482	1.05	1
0	489	1.1	1
0	490	1.1	2
0	491	1.1	1
0	492	1.1	1
0	493	1.1	2
0	494	1.1	1
0	769	1.15	1
0	770	1.15	2
0	771	1.15	1
0	818	1.2	1
0	819	1.2	2
0	820	1.2	1
0	821	1.2	1
0	822	1.2	2
0	823	1.2	1
0	872	1.25	1
0	873	1.25	2
0	874	1.25	1
0	915	1.3	1
0	916	1.3	2
0	917	1.3	1
0	918	1.3	1
0	919	1.3	2
0	920	1.3	1
0	973	1.35	1
0	974	1.35	2
0	975	1.35	1
0	1012	1.4	1
0	1013	1.4	2
0	1014	1.4	1
0	1015	1.4	1
0	1016	1.4	2
0	1017	1.4	1
0	1061	1.45	1
0	1062	1.45	2
0	1063	1.45	1
0	1103	1.5	1
0	1104	1.5	2
0	1105	1.5	1
0	1106	1.5	1
0	1107	1.5	2
0	1108	1.5	1
0	1155	1.55	1
0	1156	1.55	2
0	1157	1.55	1
0	1195	1.6	1
0	1196	1.6	2
0	1197	1.6	1
0	1198	1.6	1
0	1199	1.6	2
0	1200	1.6	1
0	1244	1.65	1
0	1245	1.65	2
0	1246	1.65	1
0	1402	1.7	1
0	1403	1.7	2
0	1404	1.7	1
0	1405	1.7	1
0	1406	1.7	2
0	1407	1.7	1
0	1471	1.75	1
0	1472	1.75	2
0	1473	1.75	1
0	1529	1.8	1
0	1530	1.8	2
0	1531	1.8	1
0	1532	1.8	1
0	1533	1.8	2
0	1534	1.8	1
0	1608	1.85	1
0	1609	1.85	2
0	1610	1.85	1
0	1662	1.9	1
0	1663	1.9	2
0	1664	1.9	1
0	1665	1.9	1
0	1666	1.9	2
0	1667	1.9	1
0	1738	1.95	1
0	1739	1.95	2
0	1740	1.95	1
0	1798	2	1
0	1799	2	2
0	1800	2	1
0	1801	2	1
0	1802	2	2
0	1803	2	1
0	1868	2.05	1
0	1869	2.05	2
0	1870	2.05	1
0	1941	2.1	1
0	1942	2.1	2
0	1943	2.1	1
0	1944	2.1	1
0	1945	2.1	2
0	1946	2.1	1
0	2019	2.15	1
0	2020	2.15	2
0	2021	2.15	1
0	2078	2.2	1
0	2079	2.2	2
0	2080	2.2	1
0	2081	2.2	1
0	2082	2.2	2
0	2083	2.2	1
0	2185	2.25	1
0	2186	2.25	2
0	2187	2.25	1
0	2277	2.3	1
0	2278	2.3	2
0	2279	2.3	1
0	2280	2.3	1
0	2281	2.3	2
0	2282	2.3	1
0	2459	2.35	1
0	2460	2.35	2
0	2461	2.35	1
0	2540	2.4	1
0	2541	2.4	2
0	2542	2.4	1
0	2543	2.4	1
0	2544	2.4	2
0	2545	2.4	1
0	2617	2.45	1
0	2618	2.45	2
0	2619	2.45	1
0	2682	2.5	1
0	2683	2.5	2
0	2684	2.5	1
0	2685	2.5	1
0	2686	2.5	2
0	2687	2.5	1
0	2953	2.55	1
0	2954	2.55	2
0	2955	2.55	1
0	3042	2.6	1
0	3043	2.6	2
0	3044	2.6	1
0	3045	2.6	1
0	3046	2.6	2
0	3047	2.6	1
0	3123	2.65	1
0	3124	2.65	2
0	3125	2.65	1
0	3200	2.7	1
0	3201	2.7	2
0	3202	2.7	1
0	3203	2.7	1
0	3204	2.7	2
0	3205	2.7	1
0	3271	2.75	1
0	3272	2.75	2
0	3273	2.75	1
0	3624	2.8	1
0	3625	2.8	2
0	3626	2.8	1
0	3627	2.8	1
0	3628	2.8	2
0	3629	2.8	1
0	3710	2.85	1
0	3711	2.85	2
0	3712	2.85	1
0	3785	2.9	1
0	3786	2.9	2
0	3787	2.9	1
0	3788	2.9	1
0	3789	2.9	2
0	3790	2.9	1
0	3858	2.95	1
0	3859	2.95	2
0	3860	2.95	1
0	3939	3	1
0	3940	3	2
0	3941	3	1
0	3942	3	1
0	3943	3	2
0	3944	3	1
0	4007	3.05	1
0	4008	3.05	2
0	4009	3.05	1
0	4077	3.1	1
0	4078	3.1	2
0	4079	3.1	1
0	4080	3.1	1
0	4081	3.1	2
0	4082	3.1	1
0	4156	3.15	1
0	4157	3.15	2
0	4158	3.15	1
0	4220	3.2	1
0	4221	3.2	2
0	4222	3.2	1
0	4223	3.2	1
0	4224	3.2	2
0	4225	3.2	1
0	4310	3.25	1
0	4311	3.25	2
0	4312	3.25	1
0	4410	3.3	1
0	4411	3.3	2
0	4412	3.3	1
0	4413	3.3	1
0	4414	3.3	2
0	4415	3.3	1
0	4545	3.35	1
0	4546	3.35	2
0	4547	3.35	1
0	4633	3.4	1
0	4634	3.4	2
0	4635	3.4	1
0	4636	3.4	1
0	4637	3.4	2
0	4638	3.4	1
0	4703	3.45	1
0	4704	3.45	2
0	4705	3.45	1
0	4776	3.5	1
0	4777	3.5	2
0	4778	3.5	1
0	4779	3.5	1
0	4780	3.5	2
0	4781	3.5	1
0	4848	3.55	1
0	4849	3.55	2
0	4850	3.55	1
0	4915	3.6	1
0	4916	3.6	2
0	4917	3.6	1
0	4918	3.6	1
0	4919	3.6	2
0	4920	3.6	1
0	4993	3.65	1
0	4994	3.65	2
0	4995	3.65	1
0	5060	3.7	1
0	5061	3.7	2
0	5062	3.7	1
0	5063	3.7	1
0	5064	3.7	2
0	5065	3.7	1
0	5133	3.75	1
0	5134	3.75	2
0	5135	3.75	1
0	5196	3.8	1
0	5197	3.8	2
0	5198	3.8	1
0	5199	3.8	1
0	5200	3.8	2
0	5201	3.8	1
0	5263	3.85	1
0	5264	3.85	2
0	5265	3.85	1
0	5325	3.9	1
0	5326	3.9	2
0	5327	3.9	1
0	5328	3.9	1
0	5329	3.9	2
0	5330	3.9	1
0	5391	3.95	1
0	5392	3.95	2
0	5393	3.95	1
0	5440	4	1
0	5441	4	2
0	5442	4	1
0	5443	4	1
0	5444	4	2
0	5445	4	1
0	5485	4.05	1
0	5486	4.05	2
0	5487	4.05	1
0	5528	4.1	1
0	5529	4.1	2
0	5530	4.1	1
0	5531	4.1	1
0	5532	4.1	2
0	5533	4.1	1
0	5582	4.15	1
0	5583	4.15	2
0	5584	4.15	1
0	5611	4.2	1
0	5612	4.2	2
0	5613	4.2	1
0	5614	4.2	1
0	5615	4.2	2
0	5616	4.2	1
0	5650	4.25	1
0	5651	4.25	2
0	5652	4.25	1
0	5679	4.3	1
0	5680	4.3	2
0	5681	4.3	1
0	5682	4.3	1
0	5683	4.3	2
0	5684	4.3	1
0	5713	4.35	1
0	5714	4.35	2
0	5715	4.35	1
0	5741	4.4	1
0	5742	4.4	2
0	5743	4.4	1
0	5744	4.4	1
0	5745	4.4	2
0	5746	4.4	1
0	5782	4.45	1
0	5783	4.45	2
0	5784	4.45	1
0	6242	4.5	1
0	6243	4.5	2
0	6244	4.5	1
0	6245	4.5	1
0	6246	4.5	2
0	6247	4.5	1
0	6296	4.55	1
0	6297	4.55	2
0	6298	4.55	1
0	6353	4.6	1
0	6354	4.6	2
0	6355	4.6	1
0	6356	4.6	1
0	6357	4.6	2
0	6358	4.6	1
0	6419	4.65	1
0	6420	4.65	2
0	6421	4.65	1
0	6464	4.7	1
0	6465	4.7	2
0	6466	4.7	1
0	6467	4.7	1
0	6468	4.7	2
0	6469	4.7	1
0	6530	4.75	1
0	6531	4.75	2
0	6532	4.75	1
0	6577	4.8	1
0	6578	4.8	2
0	6579	4.8	1
0	6580	4.8	1
0	6581	4.8	2
0	6582	4.8	1
0	6643	4.85	1
0	6644	4.85	2
0	6645	4.85	1
0	6695	4.9	1
0	6696	4.9	2
0	6697	4.9	1
0	6698	4.9	1
0	6699	4.9	2
0	6700	4.9	1
0	6753	4.95	1
0	6754	4.95	2
0	6755	4.95	1
0	6807	5	1
0	6808	5	2
0	6809	5	1
0	6810	5	1
0	6811	5	2
0	6812	5	1
0	6861	5.05	1
0	6862	5.05	2
0	6863	5.05	1
0	6915	5.1	1
0	6916	5.1	2
0	6917	5.1	1
0	6918	5.1	1
0	6919	5.1	2
0	6920	5.1	1
0	6981	5.15	1
0	6982	5.15	2
0	6983	5.15	1
0	7026	5.2	1
0	7027	5.2	2
0	7028	5.2	1
0	7029	5.2	1
0	7030	5.2	2
0	7031	5.2	1
0	7087	5.25	1
0	7088	5.25	2
0	7089	5.25	1
0	7144	5.3	1
0	7145	5.3	2
0	7146	5.3	1
0	7147	5.3	1
0	7148	5.3	2
0	7149	5.3	1
0	7198	5.35	1
0	7199	5.35	2
0	7200	5.35	1
0	7255	5.4	1
0	7256	5.4	2
0	7257	5.4	1
0	7258	5.4	1
0	7259	5.4	2
0	7260	5.4	1
0	7304	5.45	1
0	7305	5.45	2
0	7306	5.45	1
0	7351	5.5	1
0	7352	5.5	2
0	7353	5.5	1
0	7354	5.5	1
0	7355	5.5	2
0	7356	5.5	1
0	7417	5.55	1
0	7418	5.55	2
0	7419	5.55	1
0	7462	5.6	1
0	7463	5.6	2
0	7464	5.6	1
0	7465	5.6	1
0	7466	5.6	2
0	7467	5.6	1
0	7528	5.65	1
0	7529	5.65	2
0	7530	5.65	1
0	7573	5.7	1
0	7574	5.7	2
0	7575	5.7	1
0	7576	5.7	1
0	7577	5.7	2
0	7578	5.7	1
0	7639	5.75	1
0	7640	5.75	2
0	7641	5.75	1
0	7696	5.8	1
0	7697	5.8	2
0	7698	5.8	1
0	7699	5.8	1
0	7700	5.8	2
0	7701	5.8	1
0	7753	5.85	1
0	7754	5.85	2
0	7755	5.85	1
0	7798	5.9	1
0	7799	5.9	2
0	7800	5.9	1
0	7801	5.9	1
0	7802	5.9	2
0	7803	5.9	1
0	7851	5.95	1
0	7852	5.95	2
0	7853	5.95	1
0	7896	6	1
0	7897	6	2
0	7898	6	1
0	7899	6	1
0	7900	6	2
0	7901	6	1
0	7953	6.05	1
0	7954	6.05	2
0	7955	6.05	1
0	8055	6.1	1
0	8056	6.1	2
0	8057	6.1	1
0	8058	6.1	1
0	8059	6.1	2
0	8060	6.1	1
0	8081	6.15	1
0	8082	6.15	2
0	8083	6.15	1
0	8090	6.2	1
0	8091	6.2	2
0	8092	6.2	1
0	8093	6.2	1
0	8094	6.2	2
0	8095	6.2	1
0	8108	6.25	1
0	8109	6.25	2
0	8110	6.25	1
0	8117	6.3	1
0	8118	6.3	2
0	8119	6.3	1
0	8120	6.3	1
0	8121	6.3	2
0	8122	6.3	1
0	8135	6.35	1
0	8136	6.35	2
0	8137	6.35	1
0	8377	6.4	1
0	8378	6.4	2
0	8379	6.4	1
0	8380	6.4	1
0	8381	6.4	2
0	8382	6.4	1
0	8431	6.45	1
0	8432	6.45	2
0	8433	6.45	1
0	8474	6.5	1
0	8475	6.5	2
0	8476	6.5	1
0	8477	6.5	1
0	8478	6.5	2
0	8479	6.5	1
0	8550	6.55	1
0	8551	6.55	2
0	8552	6.55	1
0	8595	6.6	1
0	8596	6.6	2
0	8597	6.6	1
0	8598	6.6	1
0	8599	6.6	2
0	8600	6.6	1
0	8644	6.65	1
0	8645	6.65	2
0	8646	6.65	1
0	8692	6.7	1
0	8693	6.7	2
0	8694	6.7	1
0	8695	6.7	1
0	8696	6.7	2
0	8697	6.7	1
0	8731	6.75	1
0	8732	6.75	2
0	8733	6.75	1
0	8771	6.8	1
0	8772	6.8	2
0	8773	6.8	1
0	8774	6.8	1
0	8775	6.8	2
0	8776	6.8	1
0	8822	6.85	1
0	8823	6.85	2
0	8824	6.85	1
0	8862	6.9	1
0	8863	6.9	2
0	8864	6.9	1
0	8865	6.9	1
0	8866	6.9	2
0	8867	6.9	1
0	8919	6.95	1
0	8920	6.95	2
0	8921	6.95	1
0	8949	7	1
0	8950	7	2
0	8951	7	1
0	8952	7	1
0	8953	7	2
0	8954	7	1
0	9007	7.05	1
0	9008	7.05	2
0	9009	7.05	1
0	9052	7.1	1
0	9053	7.1	2
0	9054	7.1	1
0	9055	7.1	1
0	9056	7.1	2
0	9057	7.1	1
0	9101	7.15	1
0	9102	7.15	2
0	9103	7.15	1
0	9150	7.2	1
0	9151	7.2	2
0	9152	7.2	1
0	9153	7.2	1
0	9154	7.2	2
0	9155	7.2	1
0	9198	7.25	1
0	9199	7.25	2
0	9200	7.25	1
0	9247	7.3	1
0	9248	7.3	2
0	9249	7.3	1
0	9250	7.3	1
0	9251	7.3	2
0	9252	7.3	1
0	9305	7.35	1
0	9306	7.35	2
0	9307	7.35	1
0	9344	7.4	1
0	9345	7.4	2
0	9346	7.4	1
0	9347	7.4	1
0	9348	7.4	2
0	9349	7.4	1
0	9402	7.45	1
0	9403	7.45	2
0	9404	7.45	1
0	9447	7.5	1
0	9448	7.5	2
0	9449	7.5	1
0	9450	7.5	1
0	9451	7.5	2
0	9452	7.5	1
0	9499	7.55	1
0	9500	7.55	2
0	9501	7.55	1
0	9548	7.6	1
0	9549	7.6	2
0	9550	7.6	1
0	9551	7.6	1
0	9552	7.6	2
0	9553	7.6	1
0	9596	7.65	1
0	9597	7.65	2
0	9598	7.65	1
0	9633	7.7	1
0	9634	7.7	2
0	9635	7.7	1
0	9636	7.7	1
0	9637	7.7	2
0	9638	7.7	1
0	9687	7.75	1
0	9688	7.75	2
0	9689	7.75	1
0	9704	7.8	1
0	9705	7.8	2
0	9706	7.8	1
0	9707	7.8	1
0	9708	7.8	2
0	9709	7.8	1
0	9722	7.85	1
0	9723	7.85	2
0	9724	7.85	1
0	9731	7.9	1
0	9732	7.9	2
0	9733	7.9	1
0	9734	7.9	1
0	9735	7.9	2
0	9736	7.9	1
0	9749	7.95	1
0	9750	7.95	2
0	9751	7.95	1
0	9758	8	1
0	9759	8	2
0	9760	8	1
0	9761	8	1
0	9762	8	2
0	9763	8	1
0	9776	8.05	1
0	9777	8.05	2
0	9778	8.05	1
0	9785	8.1	1
0	9786	8.1	2
0	9787	8.1	1
0	9788	8.1	1
0	9789	8.1	2
0	9790	8.1	1
0	10255	8.15	1
0	10256	8.15	2
0	10257	8.15	1
0	10330	8.2	1
0	10331	8.2	2
0	10332	8.2	1
0	10333	8.2	1
0	10334	8.2	2
0	10335	8.2	1
0	10422	8.25	1
0	10423	8.25	2
0	10424	8.25	1
0	10517	8.3	1
0	10518	8.3	2
0	10519	8.3	1
0	10520	8.3	1
0	10521	8.3	2
0	10522	8.3	1
0	10601	8.35	1
0	10602	8.35	2
0	10603	8.35	1
0	10681	8.4	1
0	10682	8.4	2
0	10683	8.4	1
0	10684	8.4	1
0	10685	8.4	2
0	10686	8.4	1
0	10769	8.45	1
0	10770	8.45	2
0	10771	8.45	1
0	10836	8.5	1
0	10837	8.5	2
0	10838	8.5	1
0	10839	8.5	1
0	10840	8.5	2
0	10841	8.5	1
0	10921	8.55	1
0	10922	8.55	2
0	10923	8.55	1
0	11000	8.6	1
0	11001	8.6	2
0	11002	8.6	1
0	11003	8.6	1
0	11004	8.6	2
0	11005	8.6	1
0	11092	8.65	1
0	11093	8.65	2
0	11094	8.65	1
0	11166	8.7	1
0	11167	8.7	2
0	11168	8.7	1
0	11169	8.7	1
0	11170	8.7	2
0	11171	8.7	1
0	11254	8.75	1
0	11255	8.75	2
0	11256	8.75	1
0	11331	8.8	1
0	11332	8.8	2
0	11333	8.8	1
0	11334	8.8	1
0	11335	8.8	2
0	11336	8.8	1
0	11418	8.85	1
0	11419	8.85	2
0	11420	8.85	1
0	11501	8.9	1
0	11502	8.9	2
0	11503	8.9	1
0	11504	8.9	1
0	11505	8.9	2
0	11506	8.9	1
0	11583	8.95	1
0	11584	8.95	2
0	11585	8.95	1
0	11653	9	1
0	11654	9	2
0	11655	9	1
0	11656	9	1
0	11657	9	2
0	11658	9	1
0	11739	9.05	1
0	11740	9.05	2
0	11741	9.05	1
0	11815	9.1	1
0	11816	9.1	2
0	11817	9.1	1
0	11818	9.1	1
0	11819	9.1	2
0	11820	9.1	1
0	11903	9.15	1
0	11904	9.15	2
0	11905	9.15	1
0	11985	9.2	1
0	11986	9.2	2
0	11987	9.2	1
0	11988	9.2	1
0	11989	9.2	2
0	11990	9.2	1
0	12061	9.25	1
0	12062	9.25	2
0	12063	9.25	1
0	12135	9.3	1
0	12136	9.3	2
0	12137	9.3	1
0	12138	9.3	1
0	12139	9.3	2
0	12140	9.3	1
0	12223	9.35	1
0	12224	9.35	2
0	12225	9.35	1
0	12302	9.4	1
0	12303	9.4	2
0	12304	9.4	1
0	12305	9.4	1
0	12306	9.4	2
0	12307	9.4	1
0	12372	9.45	1
0	12373	9.45	2
0	12374	9.45	1
0	12414	9.5	1
0	12415	9.5	2
0	12416	9.5	1
0	12417	9.5	1
0	12418	9.5	2
0	12419	9.5	1
0	12438	9.55	1
0	12439	9.55	2
0	12440	9.55	1
0	12447	9.6	1
0	12448	9.6	2
0	12449	9.6	1
0	12450	9.6	1
0	12451	9.6	2
0	12452	9.6	1
0	12465	9.65	1
0	12466	9.65	2
0	12467	9.65	1
0	12474	9.7	1
0	12475	9.7	2
0	12476	9.7	1
0	12477	9.7	1
0	12478	9.7	2
0	12479	9.7	1
0	12492	9.75	1
0	12493	9.75	2
0	12494	9.75	1
0	12501	9.8	1
0	12502	9.8	2
0	12503	9.8	1
0	12504	9.8	1
0	12505	9.8	2
0	12506	9.8	1
0	12519	9.85	1
0	12520	9.85	2
0	12521	9.85	1
0	12534	9.9	1
0	12535	9.9	2
0	12536	9.9	1
0	12537	9.9	1
0	12538	9.9	2
0	12539	9.9	1
0	12552	9.95	1
0	12553	9.95	2
0	12554	9.95	1
0	12561	10	1
0	12562	10	2
0	12563	10	1
0	12564	10	1
0	12565	10	2
0	12566	10	1
1	19	0.1	-nan
1	39	0.101	-nan
1	41	0.102	-nan
1	43	0.103	-nan
1	45	0.104	-nan
1	47	0.105	-nan
1	49	0.106	-nan
1	51	0.107	-nan
1	53	0.108	-nan
1	55	0.109	-nan
1	57	0.11	-nan
1	59	0.111	-nan
1	61	0.112	-nan
1	63	0.113	-nan
1	65	0.114	-nan
1	67	0.115	-nan
1	69	0.116	-nan
1	71	0.117	-nan
1	73	0.118	-nan
1	75	0.119	-nan
1	77	0.12	-nan
1	79	0.121	-nan
1	81	0.122	-nan
1	83	0.123	-nan
1	85	0.124	-nan
1	87	0.125	-nan
1	89	0.126	-nan
1	91	0.127	-nan
1	93	0.128	-nan
1	95	0.129	-nan
1	97	0.13	-nan
1	99	0.131	-nan
1	101	0.132	-nan
1	103	0.133	-nan
1	105	0.134	-nan
1	107	0.135	-nan
1	109	0.136	-nan
1	111	0.137	-nan
1	113	0.138	-nan
1	115	0.139	-nan
1	117	0.14	-nan
1	119	0.141	-nan
1	121	0.142	-nan
1	123	0.143	-nan
1	125	0.144	-nan
1	127	0.145	-nan
1	129	0.146	-nan
1	131	0.147	-nan
1	133	0.148	-nan
1	135	0.149	-nan
1	140	0.15	-nan
1	148	0.151	-nan
1	150	0.152	-nan
1	152	0.153	-nan
1	154	0.154	-nan
1	156	0.155	-nan
1	158	0.156	-nan
1	160	0.157	-nan
1	162	0.158	-nan
1	164	0.159	-nan
1	166	0.16	-nan
1	168	0.161	-nan
1	170	0.162	-nan
1	172	0.163	-nan
1	174	0.164	-nan
1	176	0.165	-nan
1	178	0.166	-nan
1	180	0.167	-nan
1	182	0.168	-nan
1	184	0.169	-nan
1	186	0.17	-nan
1	188	0.171	-nan
1	190	0.172	-nan
1	192	0.173	-nan
1	194	0.174	-nan
1	196	0.175	-nan
1	198	0.176	-nan
1	200	0.177	-nan
1	202	0.178	-nan
1	204	0.179	-nan
1	206	0.18	-nan
1	208	0.181	-nan
1	210	0.182	-nan
1	212	0.183	-nan
1	214	0.184	-nan
1	216	0.185	-nan
1	218	0.186	-nan
1	220	0.187	-nan
1	222	0.188	-nan
1	224	0.189	-nan
1	226	0.19	-nan
1	228	0.191	-nan
1	230	0.192	-nan
1	232	0.193	-nan
1	234	0.194	-nan
1	236	0.195	-nan
1	238	0.196	-nan
1	240	0.197	-nan
1	242	0.198	-nan
1	244	0.199	-nan
2	762	1.138032534095	141
2	781	1.151872534095	282
2	791	1.165712534095	423
2	801	1.179552534095	564
2	811	1.193392534095	705
2	839	1.207232534095	846
2	849	1.221072534095	987
2	859	1.234912534095	1128
2	869	1.248752534095	1269
2	888	1.262592534095	1410
2	898	1.276432534095	1551
2	908	1.290272534095	1692
2	936	1.304112534095	1833
2	946	1.317952534095	1974
2	956	1.331792534095	2115
2	966	1.345632534095	2256
2	985	1.359472534095	2397
2	995	1.373312534095	2538
2	1005	1.387152534095	2679
2	1034	1.414832534095	2820
2	1044	1.428672534095	2961
2	1054	1.442512534095	3102
2	1073	1.456352534095	3243
2	1083	1.470192534095	3384
2	1093	1.484032534095	3525
2	1100	1.497872534095	3666
2	1128	1.511712534095	3807
2	1138	1.525552534095	3948
2	1148	1.539392534095	4089
2	1167	1.553232534095	4230
2	1177	1.567072534095	4371
2	1188	1.594752534095	4512
2	1216	1.608592534095	4653
2	1226	1.622432534095	4794
2	1236	1.636272534095	4935
2	1263	1.650112534095	5076
2	1283	1.663952534095	5217
2	1382	1.677792534095	5358
2	1389	1.691632534095	5499
2	1395	1.693104192201	5640
2	1423	1.705472534095	5781
2	1429	1.706944192201	5922
2	1439	1.719312534095	6063
2	1445	1.720784192201	6204
2	1455	1.733152534095	6345
2	1462	1.746992534095	6486
2	1468	1.748464192201	6627
2	1487	1.760832534095	6768
2	1493	1.762304192201	6909
2	1500	1.774672534095	7050
2	1506	1.776144192201	7191
2	1516	1.788512534095	7332
2	1522	1.789984192201	7473
2	1550	1.802352534095	7614
2	1556	1.803824192201	7755
2	1566	1.816192534095	7896
2	1572	1.817664192201	8037
2	1582	1.830032534095	8178
2	1588	1.831504192201	8319
2	1598	1.843872534095	8460
2	1604	1.845344192201	8601
2	1620	1.857712534095	8742
2	1626	1.859184192201	8883
2	1636	1.871552534095	9024
2	1642	1.873024192201	9165
2	1652	1.885392534095	9306
2	1659	1.899232534095	9447
2	1683	1.900704192201	9588
2	1693	1.913072534095	9729
2	1699	1.914544192201	9870
2	1709	1.926912534095	10011
2	1715	1.928384192201	10152
2	1725	1.940752534095	10293
2	1731	1.942224192201	10434
2	1750	1.954592534095	10575
2	1756	1.956064192201	10716
2	1766	1.968432534095	10857
2	1772	1.969904192201	10998
2	1782	1.982272534095	11139
2	1789	1.996112534095	11280
2	1795	1.997584192201	11421
2	1823	2.009952534095	11562
2	1829	2.011424192201	11703
2	1839	2.023792534095	11844
2	1845	2.025264192201	11985
2	1855	2.037632534095	12126
2	1861	2.039104192201	12267
2	1880	2.051472534095	12408
2	1886	2.052944192201	12549
2	1896	2.065312534095	12690
2	1902	2.066784192201	12831
2	1912	2.079152534095	12972
2	1918	2.080624192201	13113
2	1928	2.092992534095	13254
2	1934	2.094464192201	13395
2	1962	2.106832534095	13536
2	1968	2.108304192201	13677
2	1978	2.120672534095	13818
2	1984	2.122144192201	13959
2	1994	2.134512534095	14100
2	2000	2.135984192201	14241
2	2010	2.148352534095	14382
2	2016	2.149824192201	14523
2	2036	2.163664192201	14664
2	2046	2.176032534095	14805
2	2052	2.177504192201	14946
2	2062	2.189872534095	15087
2	2068	2.191344192201	15228
2	2106	2.203712534095	15369
2	2125	2.217552534095	15510
2	2148	2.231392534095	15651
2	2178	2.245232534095	15792
2	2210	2.259072534095	15933
2	2233	2.272912534095	16074
2	2263	2.286752534095	16215
2	2299	2.300592534095	16356
2	2393	2.314432534095	16497
2	2400	2.316832534095	16638
2	2422	2.328272534095	16779
2	2428	2.330672534095	16920
2	2442	2.342112534095	17061
2	2448	2.344512534095	17202
2	2471	2.355952534095	17343
2	2477	2.358352534095	17484
2	2491	2.369792534095	17625
2	2497	2.372192534095	17766
2	2511	2.383632534095	17907
2	2517	2.386032534095	18048
2	2531	2.397472534095	18189
2	2537	2.399872534095	18330
2	2569	2.411312534095	18471
2	2580	2.425152534095	18612
2	2586	2.427552534095	18753
2	2600	2.438992534095	18894
2	2606	2.441392534095	19035
2	2629	2.452832534095	19176
2	2635	2.455232534095	19317
2	2646	2.466672534095	19458
2	2654	2.480512534095	19599
2	2660	2.482912534095	19740
2	2674	2.494352534095	19881
2	2703	2.508192534095	20022
2	2709	2.510592534095	20163
2	2725	2.524432534095	20304
2	2946	2.538272534095	20445
2	2965	2.550821727181	20586
2	2971	2.552112534095	20727
2	2985	2.564661727181	20868
2	2991	2.565952534095	21009
2	3005	2.578501727181	21150
2	3011	2.579792534095	21291
2	3025	2.592341727181	21432
2	3031	2.593632534095	21573
2	3063	2.606181727181	21714
2	3069	2.607472534095	21855
2	3084	2.621312534095	21996
2	3094	2.633861727181	22137
2	3100	2.635152534095	22278
2	3114	2.647701727181	22419
2	3120	2.648992534095	22560
2	3145	2.661541727181	22701
2	3158	2.662832534095	22842
2	3172	2.675381727181	22983
2	3183	2.689221727181	23124
2	3189	2.690512534095	23265
2	3221	2.703061727181	23406
2	3227	2.704352534095	23547
2	3241	2.716901727181	23688
2	3252	2.730741727181	23829
2	3264	2.745872534095	23970
2	3287	2.758421727181	24111
2	3294	2.759712534095	24252
2	3314	2.772261727181	24393
2	3320	2.773552534095	24534
2	3341	2.786101727181	24675
2	3621	2.799941727181	24816
2	3647	2.801861727181	24957
2	3653	2.804373385287	25098
2	3659	2.813781727181	25239
2	3665	2.815701727181	25380
2	3671	2.818213385287	25521
2	3677	2.827621727181	25662
2	3683	2.829541727181	25803
2	3689	2.832053385287	25944
2	3695	2.841461727181	26085
2	3701	2.843381727181	26226
2	3707	2.845893385287	26367
2	3722	2.855301727181	26508
2	3728	2.857221727181	26649
2	3734	2.859733385287	26790
2	3740	2.869141727181	26931
2	3746	2.871061727181	27072
2	3752	2.873573385287	27213
2	3758	2.882981727181	27354
2	3764	2.884901727181	27495
2	3770	2.887413385287	27636
2	3776	2.896821727181	27777
2	3782	2.898741727181	27918
2	3806	2.901253385287	28059
2	3812	2.910661727181	28200
2	3818	2.912581727181	28341
2	3824	2.915093385287	28482
2	3830	2.924501727181	28623
2	3837	2.928933385287	28764
2	3843	2.938341727181	28905
2	3849	2.940261727181	29046
2	3855	2.942773385287	29187
2	3870	2.952181727181	29328
2	3876	2.954101727181	29469
2	3882	2.956613385287	29610
2	3888	2.966021727181	29751
2	3894	2.967941727181	29892
2	3900	2.970453385287	30033
2	3906	2.979861727181	30174
2	3912	2.981781727181	30315
2	3918	2.984293385287	30456
2	3924	2.993701727181	30597
2	3930	2.995621727181	30738
2	3936	2.998133385287	30879
2	3960	3.007541727181	31020
2	3967	3.011973385287	31161
2	3973	3.021381727181	31302
2	3979	3.023301727181	31443
2	3985	3.025813385287	31584
2	3991	3.035221727181	31725
2	3998	3.039653385287	31866
2	4004	3.049061727181	32007
2	4019	3.050981727181	32148
2	4025	3.053493385287	32289
2	4031	3.062901727181	32430
2	4038	3.067333385287	32571
2	4044	3.076741727181	32712
2	4050	3.078661727181	32853
2	4056	3.081173385287	32994
2	4062	3.090581727181	33135
2	4068	3.092501727181	33276
2	4074	3.095013385287	33417
2	4098	3.104421727181	33558
2	4104	3.106341727181	33699
2	4110	3.108853385287	33840
2	4116	3.118261727181	33981
2	4122	3.120181727181	34122
2	4128	3.122693385287	34263
2	4134	3.132101727181	34404
2	4140	3.134021727181	34545
2	4146	3.136533385287	34686
2	4152	3.145941727181	34827
2	4169	3.159781727181	34968
2	4175	3.161701727181	35109
2	4181	3.164213385287	35250
2	4187	3.173621727181	35391
2	4193	3.175541727181	35532
2	4199	3.178053385287	35673
2	4205	3.187461727181	35814
2	4211	3.189381727181	35955
2	4217	3.191893385287	36096
2	4241	3.201301727181	36237
2	4247	3.203221727181	36378
2	4253	3.205733385287	36519
2	4259	3.215141727181	36660
2	4265	3.217061727181	36801
2	4271	3.219573385287	36942
2	4277	3.228981727181	37083
2	4283	3.230901727181	37224
2	4289	3.233413385287	37365
2	4295	3.242821727181	37506
2	4301	3.244741727181	37647
2	4307	3.247253385287	37788
2	4322	3.256661727181	37929
2	4328	3.258581727181	38070
2	4335	3.261093385287	38211
2	4344	3.270501727181	38352
2	4352	3.274933385287	38493
2	4374	3.284341727181	38634
2	4384	3.288773385287	38775
2	4403	3.298181727181	38916
2	4439	3.302613385287	39057
2	4457	3.312021727181	39198
2	4471	3.316453385287	39339
2	4493	3.325861727181	39480
2	4520	3.339701727181	39621
2	4534	3.344133385287	39762
2	4557	3.353541727181	39903
2	4570	3.357973385287	40044
2	4588	3.367381727181	40185
2	4598	3.371813385287	40326
2	4608	3.381221727181	40467
2	4614	3.385653385287	40608
2	4624	3.395061727181	40749
2	4630	3.399493385287	40890
2	4658	3.408901727181	41031
2	4664	3.413333385287	41172
2	4674	3.422741727181	41313
2	4680	3.427173385287	41454
2	4690	3.436581727181	41595
2	4696	3.441013385287	41736
2	4715	3.450421727181	41877
2	4721	3.454853385287	42018
2	4731	3.464261727181	42159
2	4737	3.468693385287	42300
2	4747	3.478101727181	42441
2	4753	3.482533385287	42582
2	4763	3.491941727181	42723
2	4769	3.496373385287	42864
2	4797	3.505781727181	43005
2	4803	3.510213385287	43146
2	4813	3.519621727181	43287
2	4819	3.524053385287	43428
2	4829	3.533461727181	43569
2	4835	3.537893385287	43710
2	4845	3.547301727181	43851
2	4860	3.551733385287	43992
2	4870	3.561141727181	44133
2	4876	3.565573385287	44274
2	4886	3.574981727181	44415
2	4892	3.579413385287	44556
2	4902	3.588821727181	44697
2	4908	3.593253385287	44838
2	4936	3.602661727181	44979
2	4942	3.607093385287	45120
2	4952	3.616501727181	45261
2	4958	3.620933385287	45402
2	4968	3.630341727181	45543
2	4974	3.634773385287	45684
2	4984	3.644181727181	45825
2	4990	3.648613385287	45966
2	5009	3.658021727181	46107
2	5015	3.662453385287	46248
2	5025	3.671861727181	46389
2	5031	3.676293385287	46530
2	5041	3.685701727181	46671
2	5047	3.690133385287	46812
2	5057	3.699541727181	46953
2	5081	3.703973385287	47094
2	5088	3.713381727181	47235
2	5094	3.717813385287	47376
2	5104	3.727221727181	47517
2	5110	3.731653385287	47658
2	5120	3.741061727181	47799
2	5126	3.745493385287	47940
2	5145	3.754901727181	48081
2	5151	3.759333385287	48222
2	5161	3.768741727181	48363
2	5167	3.773173385287	48504
2	5177	3.782581727181	48645
2	5183	3.787013385287	48786
2	5193	3.796421727181	48927
2	5217	3.800853385287	49068
2	5227	3.810261727181	49209
2	5233	3.814693385287	49350
2	5243	3.824101727181	49491
2	5249	3.828533385287	49632
2	5259	3.837941727181	49773
2	5277	3.851781727181	49914
2	5283	3.856213385287	50055
2	5293	3.865621727181	50196
2	5299	3.870053385287	50337
2	5309	3.879461727181	50478
2	5316	3.893301727181	50619
2	5322	3.897733385287	50760
2	5350	3.907141727181	50901
2	5356	3.911573385287	51042
2	5366	3.920981727181	51183
2	5372	3.925413385287	51324
2	5384	3.939253385287	51465
2	5403	3.953093385287	51606
2	5413	3.966933385287	51747
2	5423	3.980773385287	51888
2	5433	3.994613385287	52029
2	5462	4.022293385287	52170
2	5472	4.036133385287	52311
2	5482	4.049973385287	52452
2	5501	4.063813385287	52593
2	5511	4.077653385287	52734
2	5521	4.091493385287	52875
2	5549	4.105333385287	53016
2	5559	4.119173385287	53157
2	5569	4.133013385287	53298
2	6210	4.469434236479	53439
2	6215	4.469482578373	53580
2	6222	4.483274236479	53721
2	6227	4.483322578373	53862
2	6234	4.497114236479	54003
2	6239	4.497162578373	54144
2	6264	4.510954236479	54285
2	6269	4.511002578373	54426
2	6276	4.524794236479	54567
2	6281	4.524842578373	54708
2	6288	4.538634236479	54849
2	6293	4.538682578373	54990
2	6309	4.552474236479	55131
2	6314	4.552522578373	55272
2	6321	4.566314236479	55413
2	6326	4.566362578373	55554
2	6333	4.580154236479	55695
2	6338	4.580202578373	55836
2	6345	4.593994236479	55977
2	6350	4.594042578373	56118
2	6375	4.607834236479	56259
2	6380	4.607882578373	56400
2	6387	4.621674236479	56541
2	6392	4.621722578373	56682
2	6399	4.635514236479	56823
2	6404	4.635562578373	56964
2	6411	4.649354236479	57105
2	6416	4.649402578373	57246
2	6432	4.663194236479	57387
2	6437	4.663242578373	57528
2	6444	4.677034236479	57669
2	6449	4.677082578373	57810
2	6456	4.690874236479	57951
2	6461	4.690922578373	58092
2	6486	4.704714236479	58233
2	6491	4.704762578373	58374
2	6498	4.718554236479	58515
2	6503	4.718602578373	58656
2	6510	4.732394236479	58797
2	6515	4.732442578373	58938
2	6522	4.746234236479	59079
2	6527	4.746282578373	59220
2	6545	4.760074236479	59361
2	6550	4.760122578373	59502
2	6557	4.773914236479	59643
2	6562	4.773962578373	59784
2	6569	4.787754236479	59925
2	6574	4.787802578373	60066
2	6599	4.801594236479	60207
2	6604	4.801642578373	60348
2	6611	4.815434236479	60489
2	6616	4.815482578373	60630
2	6623	4.829274236479	60771
2	6628	4.829322578373	60912
2	6635	4.843114236479	61053
2	6640	4.843162578373	61194
2	6656	4.856954236479	61335
2	6661	4.857002578373	61476
2	6668	4.870794236479	61617
2	6675	4.884634236479	61758
2	6680	4.884682578373	61899
2	6687	4.898474236479	62040
2	6692	4.898522578373	62181
2	6726	4.912314236479	62322
2	6731	4.912362578373	62463
2	6738	4.926202578373	62604
2	6745	4.939994236479	62745
2	6750	4.940042578373	62886
2	6768	4.953834236479	63027
2	6773	4.953882578373	63168
2	6780	4.967674236479	63309
2	6785	4.967722578373	63450
2	6792	4.981514236479	63591
2	6797	4.981562578373	63732
2	6804	4.995354236479	63873
2	6829	5.009194236479	64014
2	6834	5.009242578373	64155
2	6841	5.023034236479	64296
2	6846	5.023082578373	64437
2	6853	5.036874236479	64578
2	6858	5.036922578373	64719
2	6876	5.050714236479	64860
2	6881	5.050762578373	65001
2	6888	5.064554236479	65142
2	6893	5.064602578373	65283
2	6900	5.078442578373	65424
2	6907	5.092234236479	65565
2	6912	5.092282578373	65706
2	6937	5.106074236479	65847
2	6942	5.106122578373	65988
2	6949	5.119914236479	66129
2	6954	5.119962578373	66270
2	6961	5.133754236479	66411
2	6966	5.133802578373	66552
2	6973	5.147594236479	66693
2	6978	5.147642578373	66834
2	6994	5.161434236479	66975
2	6999	5.161482578373	67116
2	7006	5.175274236479	67257
2	7011	5.175322578373	67398
2	7018	5.189114236479	67539
2	7023	5.189162578373	67680
2	7048	5.203002578373	67821
2	7055	5.216794236479	67962
2	7060	5.216842578373	68103
2	7067	5.230634236479	68244
2	7072	5.230682578373	68385
2	7079	5.244474236479	68526
2	7084	5.244522578373	68667
2	7100	5.258314236479	68808
2	7105	5.258362578373	68949
2	7112	5.272154236479	69090
2	7117	5.272202578373	69231
2	7124	5.285994236479	69372
2	7129	5.286042578373	69513
2	7136	5.299834236479	69654
2	7141	5.299882578373	69795
2	7166	5.313674236479	69936
2	7171	5.313722578373	70077
2	7178	5.327514236479	70218
2	7183	5.327562578373	70359
2	7190	5.341354236479	70500
2	7195	5.341402578373	70641
2	7211	5.355194236479	70782
2	7216	5.355242578373	70923
2	7223	5.369034236479	71064
2	7228	5.369082578373	71205
2	7235	5.382874236479	71346
2	7240	5.382922578373	71487
2	7247	5.396714236479	71628
2	7252	5.396762578373	71769
2	7277	5.410554236479	71910
2	7282	5.410602578373	72051
2	7289	5.424442578373	72192
2	7296	5.438234236479	72333
2	7301	5.438282578373	72474
2	7317	5.452074236479	72615
2	7324	5.465914236479	72756
2	7329	5.465962578373	72897
2	7336	5.479802578373	73038
2	7343	5.493594236479	73179
2	7348	5.493642578373	73320
2	7373	5.507434236479	73461
2	7378	5.507482578373	73602
2	7385	5.521274236479	73743
2	7390	5.521322578373	73884
2	7397	5.535114236479	74025
2	7402	5.535162578373	74166
2	7409	5.548954236479	74307
2	7414	5.549002578373	74448
2	7430	5.562794236479	74589
2	7435	5.562842578373	74730
2	7442	5.576634236479	74871
2	7447	5.576682578373	75012
2	7454	5.590474236479	75153
2	7459	5.590522578373	75294
2	7484	5.604314236479	75435
2	7489	5.604362578373	75576
2	7496	5.618154236479	75717
2	7501	5.618202578373	75858
2	7508	5.631994236479	75999
2	7513	5.632042578373	76140
2	7520	5.645834236479	76281
2	7525	5.645882578373	76422
2	7541	5.659674236479	76563
2	7546	5.659722578373	76704
2	7553	5.673514236479	76845
2	7558	5.673562578373	76986
2	7565	5.687354236479	77127
2	7570	5.687402578373	77268
2	7595	5.701194236479	77409
2	7600	5.701242578373	77550
2	7607	5.715034236479	77691
2	7612	5.715082578373	77832
2	7619	5.728874236479	77973
2	7624	5.728922578373	78114
2	7631	5.742714236479	78255
2	7636	5.742762578373	78396
2	7652	5.756554236479	78537
2	7657	5.756602578373	78678
2	7664	5.770394236479	78819
2	7669	5.770442578373	78960
2	7676	5.784234236479	79101
2	7681	5.784282578373	79242
2	7688	5.798074236479	79383
2	7693	5.798122578373	79524
2	7718	5.811962578373	79665
2	7725	5.825754236479	79806
2	7730	5.825802578373	79947
2	7737	5.839594236479	80088
2	7742	5.839642578373	80229
2	8360	6.378453385287	80370
2	8370	6.392293385287	80511
2	8398	6.406133385287	80652
2	8408	6.419973385287	80793
2	8418	6.433813385287	80934
2	8428	6.447653385287	81075
2	8447	6.461493385287	81216
2	8457	6.475333385287	81357
2	8467	6.489173385287	81498
2	8499	6.503013385287	81639
2	8523	6.516853385287	81780
2	8533	6.530693385287	81921
2	8543	6.544533385287	82062
2	8562	6.558373385287	82203
2	8572	6.572213385287	82344
2	8582	6.586053385287	82485
2	8592	6.599893385287	82626
2	8620	6.613733385287	82767
2	8627	6.627573385287	82908
2	8637	6.641413385287	83049
2	8658	6.655253385287	83190
2	8668	6.669093385287	83331
2	8678	6.682933385287	83472
2	8685	6.696773385287	83613
2	8713	6.710613385287	83754
2	8723	6.724453385287	83895
2	8743	6.752133385287	84036
2	8753	6.765973385287	84177
2	8764	6.793653385287	84318
2	8792	6.807493385287	84459
2	8802	6.821333385287	84600
2	8812	6.835173385287	84741
2	8819	6.849013385287	84882
2	8835	6.862853385287	85023
2	8845	6.876693385287	85164
2	8855	6.890533385287	85305
2	8885	6.904373385287	85446
2	8895	6.918213385287	85587
2	8902	6.932053385287	85728
2	8912	6.945893385287	85869
2	8931	6.959733385287	86010
2	8942	6.987413385287	86151
2	8970	7.001253385287	86292
2	8980	7.015093385287	86433
2	8990	7.028933385287	86574
2	9000	7.042773385287	86715
2	9019	7.056613385287	86856
2	9029	7.070453385287	86997
2	9039	7.084293385287	87138
2	9049	7.098133385287	87279
2	9077	7.111973385287	87420
2	9087	7.125813385287	87561
2	9097	7.139653385287	87702
2	9113	7.153493385287	87843
2	9123	7.167333385287	87984
2	9133	7.181173385287	88125
2	9143	7.195013385287	88266
2	9171	7.208853385287	88407
2	9181	7.222693385287	88548
2	9191	7.236533385287	88689
2	9210	7.250373385287	88830
2	9220	7.264213385287	88971
2	9230	7.278053385287	89112
2	9240	7.291893385287	89253
2	9268	7.305733385287	89394
2	9278	7.319573385287	89535
2	9288	7.333413385287	89676
2	9298	7.347253385287	89817
2	9317	7.361093385287	89958
2	9327	7.374933385287	90099
2	9337	7.388773385287	90240
2	9365	7.402613385287	90381
2	9375	7.416453385287	90522
2	9385	7.430293385287	90663
2	9395	7.444133385287	90804
2	9414	7.457973385287	90945
2	9424	7.471813385287	91086
2	9434	7.485653385287	91227
2	9444	7.499493385287	91368
2	9472	7.513333385287	91509
2	9482	7.527173385287	91650
2	9492	7.541013385287	91791
2	9511	7.554853385287	91932
2	9521	7.568693385287	92073
2	9531	7.582533385287	92214
2	9541	7.596373385287	92355
2	9569	7.610213385287	92496
2	9579	7.624053385287	92637
2	9589	7.637893385287	92778
2	9609	7.665573385287	92919
2	9619	7.679413385287	93060
2	9626	7.693253385287	93201
2	9654	7.707093385287	93342
2	9664	7.720933385287	93483
2	9674	7.734773385287	93624
2	9684	7.748613385287	93765
2	10218	8.128453385287	93906
2	10228	8.133093385287	94047
2	10238	8.142293385287	94188
2	10248	8.146933385287	94329
2	10267	8.156133385287	94470
2	10277	8.160773385287	94611
2	10287	8.169973385287	94752
2	10297	8.174613385287	94893
2	10307	8.183813385287	95034
2	10317	8.188453385287	95175
2	10327	8.197653385287	95316
2	10355	8.202293385287	95457
2	10365	8.211493385287	95598
2	10375	8.216133385287	95739
2	10385	8.225333385287	95880
2	10395	8.229973385287	96021
2	10405	8.239173385287	96162
2	10415	8.243813385287	96303
2	10438	8.253013385287	96444
2	10444	8.257653385287	96585
2	10457	8.266853385287	96726
2	10470	8.271493385287	96867
2	10492	8.280693385287	97008
2	10502	8.285333385287	97149
2	10512	8.294533385287	97290
2	10538	8.308373385287	97431
2	10548	8.313013385287	97572
2	10558	8.322213385287	97713
2	10568	8.326853385287	97854
2	10578	8.336053385287	97995
2	10588	8.340693385287	98136
2	10598	8.349893385287	98277
2	10614	8.354533385287	98418
2	10624	8.363733385287	98559
2	10634	8.368373385287	98700
2	10644	8.377573385287	98841
2	10654	8.382213385287	98982
2	10664	8.391413385287	99123
2	10674	8.396053385287	99264
2	10702	8.405253385287	99405
2	10712	8.409893385287	99546
2	10722	8.419093385287	99687
2	10732	8.423733385287	99828
2	10742	8.432933385287	99969
2	10752	8.437573385287	100110
2	10762	8.446773385287	100251
2	10781	8.451413385287	100392
2	10791	8.460613385287	100533
2	10801	8.465253385287	100674
2	10809	8.479093385287	100815
2	10819	8.488293385287	100956
2	10829	8.492933385287	101097
2	10857	8.502133385287	101238
2	10867	8.506773385287	101379
2	10877	8.515973385287	101520
2	10887	8.520613385287	101661
2	10897	8.529813385287	101802
2	10908	8.543653385287	101943
2	10918	8.548293385287	102084
2	10937	8.557493385287	102225
2	10947	8.562133385287	102366
2	10957	8.571333385287	102507
2	10967	8.575973385287	102648
2	10977	8.585173385287	102789
2	10987	8.589813385287	102930
2	10997	8.599013385287	103071
2	11025	8.603653385287	103212
2	11035	8.612853385287	103353
2	11045	8.617493385287	103494
2	11055	8.626693385287	103635
2	11065	8.631333385287	103776
2	11075	8.640533385287	103917
2	11085	8.645173385287	104058
2	11108	8.654373385287	104199
2	11119	8.668213385287	104340
2	11129	8.672853385287	104481
2	11139	8.682053385287	104622
2	11149	8.686693385287	104763
2	11159	8.695893385287	104904
2	11187	8.700533385287	105045
2	11197	8.709733385287	105186
2	11207	8.714373385287	105327
2	11217	8.723573385287	105468
2	11227	8.728213385287	105609
2	11237	8.737413385287	105750
2	11247	8.742053385287	105891
2	11266	8.751253385287	106032
2	11276	8.755893385287	106173
2	11286	8.765093385287	106314
2	11296	8.769733385287	106455
2	11306	8.778933385287	106596
2	11316	8.783573385287	106737
2	11327	8.797413385287	106878
2	11355	8.806613385287	107019
2	11365	8.811253385287	107160
2	11375	8.820453385287	107301
2	11385	8.825093385287	107442
2	11395	8.834293385287	107583
2	11405	8.838933385287	107724
2	11415	8.848133385287	107865
2	11434	8.852773385287	108006
2	11444	8.861973385287	108147
2	11454	8.866613385287	108288
2	11464	8.875813385287	108429
2	11474	8.880453385287	108570
2	11484	8.889653385287	108711
2	11494	8.894293385287	108852
2	11522	8.903493385287	108993
2	11532	8.908133385287	109134
2	11539	8.917333385287	109275
2	11550	8.931173385287	109416
2	11560	8.935813385287	109557
2	11570	8.945013385287	109698
2	11580	8.949653385287	109839
2	11599	8.958853385287	109980
2	11609	8.963493385287	110121
2	11619	8.972693385287	110262
2	11629	8.977333385287	110403
2	11639	8.986533385287	110544
2	11646	8.991173385287	110685
2	11674	9.000373385287	110826
2	11685	9.014213385287	110967
2	11695	9.018853385287	111108
2	11705	9.028053385287	111249
2	11715	9.032693385287	111390
2	11725	9.041893385287	111531
2	11732	9.046533385287	111672
2	11751	9.055733385287	111813
2	11761	9.060373385287	111954
2	11771	9.069573385287	112095
2	11781	9.074213385287	112236
2	11791	9.083413385287	112377
2	11801	9.088053385287	112518
2	11808	9.097253385287	112659
2	11836	9.101893385287	112800
2	11846	9.111093385287	112941
2	11856	9.115733385287	113082
2	11866	9.124933385287	113223
2	11876	9.129573385287	113364
2	11886	9.138773385287	113505
2	11896	9.143413385287	113646
2	11915	9.152613385287	113787
2	11925	9.157253385287	113928
2	11935	9.166453385287	114069
2	11945	9.171093385287	114210
2	11952	9.180293385287	114351
2	11962	9.184933385287	114492
2	11972	9.194133385287	114633
2	11982	9.198773385287	114774
2	12010	9.207973385287	114915
2	12020	9.212613385287	115056
2	12030	9.221813385287	115197
2	12040	9.226453385287	115338
2	12048	9.240293385287	115479
2	12058	9.249493385287	115620
2	12077	9.254133385287	115761
2	12087	9.263333385287	115902
2	12097	9.267973385287	116043
2	12107	9.277173385287	116184
2	12118	9.291013385287	116325
2	12128	9.295653385287	116466
2	12156	9.304853385287	116607
2	12166	9.309493385287	116748
2	12176	9.318693385287	116889
2	12186	9.323333385287	117030
2	12196	9.332533385287	117171
2	12206	9.337173385287	117312
2	12216	9.346373385287	117453
2	12235	9.351013385287	117594
2	12245	9.360213385287	117735
2	12255	9.364853385287	117876
2	12265	9.374053385287	118017
2	12275	9.378693385287	118158
2	12285	9.387893385287	118299
2	12295	9.392533385287	118440
2	12323	9.401733385287	118581
2	12333	9.406373385287	118722
2	12344	9.415573385287	118863
2	12355	9.429413385287	119004
2	12365	9.443253385287	119145
2	12384	9.457093385287	119286
2	12394	9.470933385287	119427
2	12401	9.484773385287	119568
2	12411	9.498613385287	119709
3	762	1.138032534095	141
3	781	1.151872534095	282
3	791	1.165712534095	423
3	801	1.179552534095	564
3	811	1.193392534095	705
3	839	1.207232534095	846
3	849	1.221072534095	987
3	859	1.234912534095	1128
3	869	1.248752534095	1269
3	888	1.262592534095	1410
3	898	1.276432534095	1551
3	908	1.290272534095	1692
3	936	1.304112534095	1833
3	946	1.317952534095	1974
3	956	1.331792534095	2115
3	966	1.345632534095	2256
3	985	1.359472534095	2397
3	995	1.373312534095	2538
3	1005	1.387152534095	2679
3	1034	1.414832534095	2820
3	1044	1.428672534095	2961
3	1054	1.442512534095	3102
3	1073	1.456352534095	3243
3	1083	1.470192534095	3384
3	1093	1.484032534095	3525
3	1100	1.497872534095	3666
3	1128	1.511712534095	3807
3	1138	1.525552534095	3948
3	1148	1.539392534095	4089
3	1167	1.553232534095	4230
3	1177	1.567072534095	4371
3	1188	1.594752534095	4512
3	1216	1.608592534095	4653
3	1226	1.622432534095	4794
3	1236	1.636272534095	4935
3	1263	1.650112534095	5076
3	1283	1.663952534095	5217
3	1382	1.677792534095	5358
3	1389	1.691632534095	5499
3	1395	1.693104192201	5640
3	1423	1.705472534095	5781
3	1429	1.706944192201	5922
3	1439	1.719312534095	6063
3	1445	1.720784192201	6204
3	1455	1.733152534095	6345
3	1462	1.746992534095	6486
3	1468	1.748464192201	6627
3	1487	1.760832534095	6768
3	1493	1.762304192201	6909
3	1500	1.774672534095	7050
3	1506	1.776144192201	7191
3	1516	1.788512534095	7332
3	1522	1.789984192201	7473
3	1550	1.802352534095	7614
3	1556	1.803824192201	7755
3	1566	1.816192534095	7896
3	1572	1.817664192201	8037
3	1582	1.830032534095	8178
3	1588	1.831504192201	8319
3	1598	1.843872534095	8460
3	1604	1.845344192201	8601
3	1620	1.857712534095	8742
3	1626	1.859184192201	8883
3	1636	1.871552534095	9024
3	1642	1.873024192201	9165
3	1652	1.885392534095	9306
3	1659	1.899232534095	9447
3	1683	1.900704192201	9588
3	1693	1.913072534095	9729
3	1699	1.914544192201	9870
3	1709	1.926912534095	10011
3	1715	1.928384192201	10152
3	1725	1.940752534095	10293
3	1731	1.942224192201	10434
3	1750	1.954592534095	10575
3	1756	1.956064192201	10716
3	1766	1.968432534095	10857
3	1772	1.969904192201	10998
3	1782	1.982272534095	11139
3	1789	1.996112534095	11280
3	1795	1.997584192201	11421
3	1823	2.009952534095	11562
3	1829	2.011424192201	11703
3	1839	2.023792534095	11844
3	1845	2.025264192201	11985
3	1855	2.037632534095	12126
3	1861	2.039104192201	12267
3	1880	2.051472534095	12408
3	1886	2.052944192201	12549
3	1896	2.065312534095	12690
3	1902	2.066784192201	12831
3	1912	2.079152534095	12972
3	1918	2.080624192201	13113
3	1928	2.092992534095	13254
3	1934	2.094464192201	13395
3	1962	2.106832534095	13536
3	1968	2.108304192201	13677
3	1978	2.120672534095	13818
3	1984	2.122144192201	13959
3	1994	2.134512534095	14100
3	2000	2.135984192201	14241
3	2010	2.148352534095	14382
3	2016	2.149824192201	14523
3	2036	2.163664192201	14664
3	2046	2.176032534095	14805
3	2052	2.177504192201	14946
3	2062	2.189872534095	15087
3	2068	2.191344192201	15228
3	2106	2.203712534095	15369
3	2125	2.217552534095	15510
3	2148	2.231392534095	15651
3	2178	2.245232534095	15792
3	2210	2.259072534095	15933
3	2233	2.272912534095	16074
3	2263	2.286752534095	16215
3	2299	2.300592534095	16356
3	2393	2.314432534095	16497
3	2400	2.316832534095	16638
3	2422	2.328272534095	16779
3	2428	2.330672534095	16920
3	2442	2.342112534095	17061
3	2448	2.344512534095	17202
3	2471	2.355952534095	17343
3	2477	2.358352534095	17484
3	2491	2.369792534095	17625
3	2497	2.372192534095	17766
3	2511	2.383632534095	17907
3	2517	2.386032534095	18048
3	2531	2.397472534095	18189
3	2537	2.399872534095	18330
3	2569	2.411312534095	18471
3	2580	2.425152534095	18612
3	2586	2.427552534095	18753
3	2600	2.438992534095	18894
3	2606	2.441392534095	19035
3	2629	2.452832534095	19176
3	2635	2.455232534095	19317
3	2646	2.466672534095	19458
3	2654	2.480512534095	19599
3	2660	2.482912534095	19740
3	2674	2.494352534095	19881
3	2703	2.508192534095	20022
3	2709	2.510592534095	20163
3	2725	2.524432534095	20304
3	2946	2.538272534095	20445
3	2965	2.550821727181	20586
3	2971	2.552112534095	20727
3	2985	2.564661727181	20868
3	2991	2.565952534095	21009
3	3005	2.578501727181	21150
3	3011	2.579792534095	21291
3	3025	2.592341727181	21432
3	3031	2.593632534095	21573
3	3063	2.606181727181	21714
3	3069	2.607472534095	21855
3	3084	2.621312534095	21996
3	3094	2.633861727181	22137
3	3100	2.635152534095	22278
3	3114	2.647701727181	22419
3	3120	2.648992534095	22560
3	3145	2.661541727181	22701
3	3158	2.662832534095	22842
3	3172	2.675381727181	22983
3	3183	2.689221727181	23124
3	3189	2.690512534095	23265
3	3221	2.703061727181	23406
3	3227	2.704352534095	23547
3	3241	2.716901727181	23688
3	3252	2.730741727181	23829
3	3264	2.745872534095	23970
3	3287	2.758421727181	24111
3	3294	2.759712534095	24252
3	3314	2.772261727181	24393
3	3320	2.773552534095	24534
3	3341	2.786101727181	24675
3	3621	2.799941727181	24816
3	3647	2.801861727181	24957
3	3653	2.804373385287	25098
3	3659	2.813781727181	25239
3	3665	2.815701727181	25380
3	3671	2.818213385287	25521
3	3677	2.827621727181	25662
3	3683	2.829541727181	25803
3	3689	2.832053385287	25944
3	3695	2.841461727181	26085
3	3701	2.843381727181	26226
3	3707	2.845893385287	26367
3	3722	2.855301727181	26508
3	3728	2.857221727181	26649
3	3734	2.859733385287	26790
3	3740	2.869141727181	26931
3	3746	2.871061727181	27072
3	3752	2.873573385287	27213
3	3758	2.882981727181	27354
3	3764	2.884901727181	27495
3	3770	2.887413385287	27636
3	3776	2.896821727181	27777
3	3782	2.898741727181	27918
3	3806	2.901253385287	28059
3	3812	2.910661727181	28200
3	3818	2.912581727181	28341
3	3824	2.915093385287	28482
3	3830	2.924501727181	28623
3	3837	2.928933385287	28764
3	3843	2.938341727181	28905
3	3849	2.940261727181	29046
3	3855	2.942773385287	29187
3	3870	2.952181727181	29328
3	3876	2.954101727181	29469
3	3882	2.956613385287	29610
3	3888	2.966021727181	29751
3	3894	2.967941727181	29892
3	3900	2.970453385287	30033
3	3906	2.979861727181	30174
3	3912	2.981781727181	30315
3	3918	2.984293385287	30456
3	3924	2.993701727181	30597
3	3930	2.995621727181	30738
3	3936	2.998133385287	30879
3	3960	3.007541727181	31020
3	3967	3.011973385287	31161
3	3973	3.021381727181	31302
3	3979	3.023301727181	31443
3	3985	3.025813385287	31584
3	3991	3.035221727181	31725
3	3998	3.039653385287	31866
3	4004	3.049061727181	32007
3	4019	3.050981727181	32148
3	4025	3.053493385287	32289
3	4031	3.062901727181	32430
3	4038	3.067333385287	32571
3	4044	3.076741727181	32712
3	4050	3.078661727181	32853
3	4056	3.081173385287	32994
3	4062	3.090581727181	33135
3	4068	3.092501727181	33276
3	4074	3.095013385287	33417
3	4098	3.104421727181	33558
3	4104	3.106341727181	33699
3	4110	3.108853385287	33840
3	4116	3.118261727181	33981
3	4122	3.120181727181	34122
3	4128	3.122693385287	34263
3	4134	3.132101727181	34404
3	4140	3.134021727181	34545
3	4146	3.136533385287	34686
3	4152	3.145941727181	34827
3	4169	3.159781727181	34968
3	4175	3.161701727181	35109
3	4181	3.164213385287	35250
3	4187	3.173621727181	35391
3	4193	3.175541727181	35532
3	4199	3.178053385287	35673
3	4205	3.187461727181	35814
3	4211	3.189381727181	35955
3	4217	3.191893385287	36096
3	4241	3.201301727181	36237
3	4247	3.203221727181	36378
3	4253	3.205733385287	36519
3	4259	3.215141727181	36660
3	4265	3.217061727181	36801
3	4271	3.219573385287	36942
3	4277	3.228981727181	37083
3	4283	3.230901727181	37224
3	4289	3.233413385287	37365
3	4295	3.242821727181	37506
3	4301	3.244741727181	37647
3	4307	3.247253385287	37788
3	4322	3.256661727181	37929
3	4328	3.258581727181	38070
3	4335	3.261093385287	38211
3	4344	3.270501727181	38352
3	4352	3.274933385287	38493
3	4374	3.284341727181	38634
3	4384	3.288773385287	38775
3	4403	3.298181727181	38916
3	4439	3.302613385287	39057
3	4457	3.312021727181	39198
3	4471	3.316453385287	39339
3	4493	3.325861727181	39480
3	4520	3.339701727181	39621
3	4534	3.344133385287	39762
3	4557	3.353541727181	39903
3	4570	3.357973385287	40044
3	4588	3.367381727181	40185
3	4598	3.371813385287	40326
3	4608	3.381221727181	40467
3	4614	3.385653385287	40608
3	4624	3.395061727181	40749
3	4630	3.399493385287	40890
3	4658	3.408901727181	41031
3	4664	3.413333385287	41172
3	4674	3.422741727181	41313
3	4680	3.427173385287	41454
3	4690	3.436581727181	41595
3	4696	3.441013385287	41736
3	4715	3.450421727181	41877
3	4721	3.454853385287	42018
3	4731	3.464261727181	42159
3	4737	3.468693385287	42300
3	4747	3.478101727181	42441
3	4753	3.482533385287	42582
3	4763	3.491941727181	42723
3	4769	3.496373385287	42864
3	4797	3.505781727181	43005
3	4803	3.510213385287	43146
3	4813	3.519621727181	43287
3	4819	3.524053385287	43428
3	4829	3.533461727181	43569
3	4835	3.537893385287	43710
3	4845	3.547301727181	43851
3	4860	3.551733385287	43992
3	4870	3.561141727181	44133
3	4876	3.565573385287	44274
3	4886	3.574981727181	44415
3	4892	3.579413385287	44556
3	4902	3.588821727181	44697
3	4908	3.593253385287	44838
3	4936	3.602661727181	44979
3	4942	3.607093385287	45120
3	4952	3.616501727181	45261
3	4958	3.620933385287	45402
3	4968	3.630341727181	45543
3	4974	3.634773385287	45684
3	4984	3.644181727181	45825
3	4990	3.648613385287	45966
3	5009	3.658021727181	46107
3	5015	3.662453385287	46248
3	5025	3.671861727181	46389
3	5031	3.676293385287	46530
3	5041	3.685701727181	46671
3	5047	3.690133385287	46812
3	5057	3.699541727181	46953
3	5081	3.703973385287	47094
3	5088	3.713381727181	47235
3	5094	3.717813385287	47376
3	5104	3.727221727181	47517
3	5110	3.731653385287	47658
3	5120	3.741061727181	47799
3	5126	3.745493385287	47940
3	5145	3.754901727181	48081
3	5151	3.759333385287	48222
3	5161	3.768741727181	48363
3	5167	3.773173385287	48504
3	5177	3.782581727181	48645
3	5183	3.787013385287	48786
3	5193	3.796421727181	48927
3	5217	3.800853385287	49068
3	5227	3.810261727181	49209
3	5233	3.814693385287	49350
3	5243	3.824101727181	49491
3	5249	3.828533385287	49632
3	5259	3.837941727181	49773
3	5277	3.851781727181	49914
3	5283	3.856213385287	50055
3	5293	3.865621727181	50196
3	5299	3.870053385287	50337
3	5309	3.879461727181	50478
3	5316	3.893301727181	50619
3	5322	3.897733385287	50760
3	5350	3.907141727181	50901
3	5356	3.911573385287	51042
3	5366	3.920981727181	51183
3	5372	3.925413385287	51324
3	5384	3.939253385287	51465
3	5403	3.953093385287	51606
3	5413	3.966933385287	51747
3	5423	3.980773385287	51888
3	5433	3.994613385287	52029
3	5462	4.022293385287	52170
3	5472	4.036133385287	52311
3	5482	4.049973385287	52452
3	5501	4.063813385287	52593
3	5511	4.077653385287	52734
3	5521	4.091493385287	52875
3	5549	4.105333385287	53016
3	5559	4.119173385287	53157
3	5569	4.133013385287	53298
3	6210	4.469434236479	53439
3	6215	4.469482578373	53580
3	6222	4.483274236479	53721
3	6227	4.483322578373	53862
3	6234	4.497114236479	54003
3	6239	4.497162578373	54144
3	6264	4.510954236479	54285
3	6269	4.511002578373	54426
3	6276	4.524794236479	54567
3	6281	4.524842578373	54708
3	6288	4.538634236479	54849
3	6293	4.538682578373	54990
3	6309	4.552474236479	55131
3	6314	4.552522578373	55272
3	6321	4.566314236479	55413
3	6326	4.566362578373	55554
3	6333	4.580154236479	55695
3	6338	4.580202578373	55836
3	6345	4.593994236479	55977
3	6350	4.594042578373	56118
3	6375	4.607834236479	56259
3	6380	4.607882578373	56400
3	6387	4.621674236479	56541
3	6392	4.621722578373	56682
3	6399	4.635514236479	56823
3	6404	4.635562578373	56964
3	6411	4.649354236479	57105
3	6416	4.649402578373	57246
3	6432	4.663194236479	57387
3	6437	4.663242578373	57528
3	6444	4.677034236479	57669
3	6449	4.677082578373	57810
3	6456	4.690874236479	57951
3	6461	4.690922578373	58092
3	6486	4.704714236479	58233
3	6491	4.704762578373	58374
3	6498	4.718554236479	58515
3	6503	4.718602578373	58656
3	6510	4.732394236479	58797
3	6515	4.732442578373	58938
3	6522	4.746234236479	59079
3	6527	4.746282578373	59220
3	6545	4.760074236479	59361
3	6550	4.760122578373	59502
3	6557	4.773914236479	59643
3	6562	4.773962578373	59784
3	6569	4.787754236479	59925
3	6574	4.787802578373	60066
3	6599	4.801594236479	60207
3	6604	4.801642578373	60348
3	6611	4.815434236479	60489
3	6616	4.815482578373	60630
3	6623	4.829274236479	60771
3	6628	4.829322578373	60912
3	6635	4.843114236479	61053
3	6640	4.843162578373	61194
3	6656	4.856954236479	61335
3	6661	4.857002578373	61476
3	6668	4.870794236479	61617
3	6675	4.884634236479	61758
3	6680	4.884682578373	61899
3	6687	4.898474236479	62040
3	6692	4.898522578373	62181
3	6726	4.912314236479	62322
3	6731	4.912362578373	62463
3	6738	4.926202578373	62604
3	6745	4.939994236479	62745
3	6750	4.940042578373	62886
3	6768	4.953834236479	63027
3	6773	4.953882578373	63168
3	6780	4.967674236479	63309
3	6785	4.967722578373	63450
3	6792	4.981514236479	63591
3	6797	4.981562578373	63732
3	6804	4.995354236479	63873
3	6829	5.009194236479	64014
3	6834	5.009242578373	64155
3	6841	5.023034236479	64296
3	6846	5.023082578373	64437
3	6853	5.036874236479	64578
3	6858	5.036922578373	64719
3	6876	5.050714236479	64860
3	6881	5.050762578373	65001
3	6888	5.064554236479	65142
3	6893	5.064602578373	65283
3	6900	5.078442578373	65424
3	6907	5.092234236479	65565
3	6912	5.092282578373	65706
3	6937	5.106074236479	65847
3	6942	5.106122578373	65988
3	6949	5.119914236479	66129
3	6954	5.119962578373	66270
3	6961	5.133754236479	66411
3	6966	5.133802578373	66552
3	6973	5.147594236479	66693
3	6978	5.147642578373	66834
3	6994	5.161434236479	66975
3	6999	5.161482578373	67116
3	7006	5.175274236479	67257
3	7011	5.175322578373	67398
3	7018	5.189114236479	67539
3	7023	5.189162578373	67680
3	7048	5.203002578373	67821
3	7055	5.216794236479	67962
3	7060	5.216842578373	68103
3	7067	5.230634236479	68244
3	7072	5.230682578373	68385
3	7079	5.244474236479	68526
3	7084	5.244522578373	68667
3	7100	5.258314236479	68808
3	7105	5.258362578373	68949
3	7112	5.272154236479	69090
3	7117	5.272202578373	69231
3	7124	5.285994236479	69372
3	7129	5.286042578373	69513
3	7136	5.299834236479	69654
3	7141	5.299882578373	69795
3	7166	5.313674236479	69936
3	7171	5.313722578373	70077
3	7178	5.327514236479	70218
3	7183	5.327562578373	70359
3	7190	5.341354236479	70500
3	7195	5.341402578373	70641
3	7211	5.355194236479	70782
3	7216	5.355242578373	70923
3	7223	5.369034236479	71064
3	7228	5.369082578373	71205
3	7235	5.382874236479	71346
3	7240	5.382922578373	71487
3	7247	5.396714236479	71628
3	7252	5.396762578373	71769
3	7277	5.410554236479	71910
3	7282	5.410602578373	72051
3	7289	5.424442578373	72192
3	7296	5.438234236479	72333
3	7301	5.438282578373	72474
3	7317	5.452074236479	72615
3	7324	5.465914236479	72756
3	7329	5.465962578373	72897
3	7336	5.479802578373	73038
3	7343	5.493594236479	73179
3	7348	5.493642578373	73320
3	7373	5.507434236479	73461
3	7378	5.507482578373	73602
3	7385	5.521274236479	73743
3	7390	5.521322578373	73884
3	7397	5.535114236479	74025
3	7402	5.535162578373	74166
3	7409	5.548954236479	74307
3	7414	5.549002578373	74448
3	7430	5.562794236479	74589
3	7435	5.562842578373	74730
3	7442	5.576634236479	74871
3	7447	5.576682578373	75012
3	7454	5.590474236479	75153
3	7459	5.590522578373	75294
3	7484	5.604314236479	75435
3	7489	5.604362578373	75576
3	7496	5.618154236479	75717
3	7501	5.618202578373	75858
3	7508	5.631994236479	75999
3	7513	5.632042578373	76140
3	7520	5.645834236479	76281
3	7525	5.645882578373	76422
3	7541	5.659674236479	76563
3	7546	5.659722578373	76704
3	7553	5.673514236479	76845
3	7558	5.673562578373	76986
3	7565	5.687354236479	77127
3	7570	5.687402578373	77268
3	7595	5.701194236479	77409
3	7600	5.701242578373	77550
3	7607	5.715034236479	77691
3	7612	5.715082578373	77832
3	7619	5.728874236479	77973
3	7624	5.728922578373	78114
3	7631	5.742714236479	78255
3	7636	5.742762578373	78396
3	7652	5.756554236479	78537
3	7657	5.756602578373	78678
3	7664	5.770394236479	78819
3	7669	5.770442578373	78960
3	7676	5.784234236479	79101
3	7681	5.784282578373	79242
3	7688	5.798074236479	79383
3	7693	5.798122578373	79524
3	7718	5.811962578373	79665
3	7725	5.825754236479	79806
3	7730	5.825802578373	79947
3	7737	5.839594236479	80088
3	7742	5.839642578373	80229
3	8360	6.378453385287	80370
3	8370	6.392293385287	80511
3	8398	6.406133385287	80652
3	8408	6.419973385287	80793
3	8418	6.433813385287	80934
3	8428	6.447653385287	81075
3	8447	6.461493385287	81216
3	8457	6.475333385287	81357
3	8467	6.489173385287	81498
3	8499	6.503013385287	81639
3	8523	6.516853385287	81780
3	8533	6.530693385287	81921
3	8543	6.544533385287	82062
3	8562	6.558373385287	82203
3	8572	6.572213385287	82344
3	8582	6.586053385287	82485
3	8592	6.599893385287	82626
3	8620	6.613733385287	82767
3	8627	6.627573385287	82908
3	8637	6.641413385287	83049
3	8658	6.655253385287	83190
3	8668	6.669093385287	83331
3	8678	6.682933385287	83472
3	8685	6.696773385287	83613
3	8713	6.710613385287	83754
3	8723	6.724453385287	83895
3	8743	6.752133385287	84036
3	8753	6.765973385287	84177
3	8764	6.793653385287	84318
3	8792	6.807493385287	84459
3	8802	6.821333385287	84600
3	8812	6.835173385287	84741
3	8819	6.849013385287	84882
3	8835	6.862853385287	85023
3	8845	6.876693385287	85164
3	8855	6.890533385287	85305
3	8885	6.904373385287	85446
3	8895	6.918213385287	85587
3	8902	6.932053385287	85728
3	8912	6.945893385287	85869
3	8931	6.959733385287	86010
3	8942	6.987413385287	86151
3	8970	7.001253385287	86292
3	8980	7.015093385287	86433
3	8990	7.028933385287	86574
3	9000	7.042773385287	86715
3	9019	7.056613385287	86856
3	9029	7.070453385287	86997
3	9039	7.084293385287	87138
3	9049	7.098133385287	87279
3	9077	7.111973385287	87420
3	9087	7.125813385287	87561
3	9097	7.139653385287	87702
3	9113	7.153493385287	87843
3	9123	7.167333385287	87984
3	9133	7.181173385287	88125
3	9143	7.195013385287	88266
3	9171	7.208853385287	88407
3	9181	7.222693385287	88548
3	9191	7.236533385287	88689
3	9210	7.250373385287	88830
3	9220	7.264213385287	88971
3	9230	7.278053385287	89112
3	9240	7.291893385287	89253
3	9268	7.305733385287	89394
3	9278	7.319573385287	89535
3	9288	7.333413385287	89676
3	9298	7.347253385287	89817
3	9317	7.361093385287	89958
3	9327	7.374933385287	90099
3	9337	7.388773385287	90240
3	9365	7.402613385287	90381
3	9375	7.416453385287	90522
3	9385	7.430293385287	90663
3	9395	7.444133385287	90804
3	9414	7.457973385287	90945
3	9424	7.471813385287	91086
3	9434	7.485653385287	91227
3	9444	7.499493385287	91368
3	9472	7.513333385287	91509
3	9482	7.527173385287	91650
3	9492	7.541013385287	91791
3	9511	7.554853385287	91932
3	9521	7.568693385287	92073
3	9531	7.582533385287	92214
3	9541	7.596373385287	92355
3	9569	7.610213385287	92496
3	9579	7.624053385287	92637
3	9589	7.637893385287	92778
3	9609	7.665573385287	92919
3	9619	7.679413385287	93060
3	9626	7.693253385287	93201
3	9654	7.707093385287	93342
3	9664	7.720933385287	93483
3	9674	7.734773385287	93624
3	9684	7.748613385287	93765
3	10218	8.128453385287	93906
3	10228	8.133093385287	94047
3	10238	8.142293385287	94188
3	10248	8.146933385287	94329
3	10267	8.156133385287	94470
3	10277	8.160773385287	94611
3	10287	8.169973385287	94752
3	10297	8.174613385287	94893
3	10307	8.183813385287	95034
3	10317	8.188453385287	95175
3	10327	8.197653385287	95316
3	10355	8.202293385287	95457
3	10365	8.211493385287	95598
3	10375	8.216133385287	95739
3	10385	8.225333385287	95880
3	10395	8.229973385287	96021
3	10405	8.239173385287	96162
3	10415	8.243813385287	96303
3	10438	8.253013385287	96444
3	10444	8.257653385287	96585
3	10457	8.266853385287	96726
3	10470	8.271493385287	96867
3	10492	8.280693385287	97008
3	10502	8.285333385287	97149
3	10512	8.294533385287	97290
3	10538	8.308373385287	97431
3	10548	8.313013385287	97572
3	10558	8.322213385287	97713
3	10568	8.326853385287	97854
3	10578	8.336053385287	97995
3	10588	8.340693385287	98136
3	10598	8.349893385287	98277
3	10614	8.354533385287	98418
3	10624	8.363733385287	98559
3	10634	8.368373385287	98700
3	10644	8.377573385287	98841
3	10654	8.382213385287	98982
3	10664	8.391413385287	99123
3	10674	8.396053385287	99264
3	10702	8.405253385287	99405
3	10712	8.409893385287	99546
3	10722	8.419093385287	99687
3	10732	8.423733385287	99828
3	10742	8.432933385287	99969
3	10752	8.437573385287	100110
3	10762	8.446773385287	100251
3	10781	8.451413385287	100392
3	10791	8.460613385287	100533
3	10801	8.465253385287	100674
3	10809	8.479093385287	100815
3	10819	8.488293385287	100956
3	10829	8.492933385287	101097
3	10857	8.502133385287	101238
3	10867	8.506773385287	101379
3	10877	8.515973385287	101520
3	10887	8.520613385287	101661
3	10897	8.529813385287	101802
3	10908	8.543653385287	101943
3	10918	8.548293385287	102084
3	10937	8.557493385287	102225
3	10947	8.562133385287	102366
3	10957	8.571333385287	102507
3	10967	8.575973385287	102648
3	10977	8.585173385287	102789
3	10987	8.589813385287	102930
3	10997	8.599013385287	103071
3	11025	8.603653385287	103212
3	11035	8.612853385287	103353
3	11045	8.617493385287	103494
3	11055	8.626693385287	103635
3	11065	8.631333385287	103776
3	11075	8.640533385287	103917
3	11085	8.645173385287	104058
3	11108	8.654373385287	104199
3	11119	8.668213385287	104340
3	11129	8.672853385287	104481
3	11139	8.682053385287	104622
3	11149	8.686693385287	104763
3	11159	8.695893385287	104904
3	11187	8.700533385287	105045
3	11197	8.709733385287	105186
3	11207	8.714373385287	105327
3	11217	8.723573385287	105468
3	11227	8.728213385287	105609
3	11237	8.737413385287	105750
3	11247	8.742053385287	105891
3	11266	8.751253385287	106032
3	11276	8.755893385287	106173
3	11286	8.765093385287	106314
3	11296	8.769733385287	106455
3	11306	8.778933385287	106596
3	11316	8.783573385287	106737
3	11327	8.797413385287	106878
3	11355	8.806613385287	107019
3	11365	8.811253385287	107160
3	11375	8.820453385287	107301
3	11385	8.825093385287	107442
3	11395	8.834293385287	107583
3	11405	8.838933385287	107724
3	11415	8.848133385287	107865
3	11434	8.852773385287	108006
3	11444	8.861973385287	108147
3	11454	8.866613385287	108288
3	11464	8.875813385287	108429
3	11474	8.880453385287	108570
3	11484	8.889653385287	108711
3	11494	8.894293385287	108852
3	11522	8.903493385287	108993
3	11532	8.908133385287	109134
3	11539	8.917333385287	109275
3	11550	8.931173385287	109416
3	11560	8.935813385287	109557
3	11570	8.945013385287	109698
3	11580	8.949653385287	109839
3	11599	8.958853385287	109980
3	11609	8.963493385287	110121
3	11619	8.972693385287	110262
3	11629	8.977333385287	110403
3	11639	8.986533385287	110544
3	11646	8.991173385287	110685
3	11674	9.000373385287	110826
3	11685	9.014213385287	110967
3	11695	9.018853385287	111108
3	11705	9.028053385287	111249
3	11715	9.032693385287	111390
3	11725	9.041893385287	111531
3	11732	9.046533385287	111672
3	11751	9.055733385287	111813
3	11761	9.060373385287	111954
3	11771	9.069573385287	112095
3	11781	9.074213385287	112236
3	11791	9.083413385287	112377
3	11801	9.088053385287	112518
3	11808	9.097253385287	112659
3	11836	9.101893385287	112800
3	11846	9.111093385287	112941
3	11856	9.115733385287	113082
3	11866	9.124933385287	113223
3	11876	9.129573385287	113364
3	11886	9.138773385287	113505
3	11896	9.143413385287	113646
3	11915	9.152613385287	113787
3	11925	9.157253385287	113928
3	11935	9.166453385287	114069
3	11945	9.171093385287	114210
3	11952	9.180293385287	114351
3	11962	9.184933385287	114492
3	11972	9.194133385287	114633
3	11982	9.198773385287	114774
3	12010	9.207973385287	114915
3	12020	9.212613385287	115056
3	12030	9.221813385287	115197
3	12040	9.226453385287	115338
3	12048	9.240293385287	115479
3	12058	9.249493385287	115620
3	12077	9.254133385287	115761
3	12087	9.263333385287	115902
3	12097	9.267973385287	116043
3	12107	9.277173385287	116184
3	12118	9.291013385287	116325
3	12128	9.295653385287	116466
3	12156	9.304853385287	116607
3	12166	9.309493385287	116748
3	12176	9.318693385287	116889
3	12186	9.323333385287	117030
3	12196	9.332533385287	117171
3	12206	9.337173385287	117312
3	12216	9.346373385287	117453
3	12235	9.351013385287	117594
3	12245	9.360213385287	117735
3	12255	9.364853385287	117876
3	12265	9.374053385287	118017
3	12275	9.378693385287	118158
3	12285	9.387893385287	118299
3	12295	9.392533385287	118440
3	12323	9.401733385287	118581
3	12333	9.406373385287	118722
3	12344	9.415573385287	118863
3	12355	9.429413385287	119004
3	12365	9.443253385287	119145
3	12384	9.457093385287	119286
3	12394	9.470933385287	119427
3	12401	9.484773385287	119568
3	12411	9.498613385287	119709

