version 2
run A1-0-20191017-20:44:44-28508
attr configname A1
attr datetime 20191017-20:44:44
attr experiment A1
attr inifile SimV2.ini
attr iterationvars ""
attr iterationvarsf ""
attr measurement ""
attr network NetworkTormV2
attr processid 28508
attr repetition 0
attr replication #0
attr resultdir results
attr runnumber 0
attr seedset 0
param **.mobility.traceFile "\"paths/A.movements\""
param **.numNodes 3
param **.wirelessIfc.wirelessRange 40m
param **.bluetoothIfc.wirelessRange 40m
param **.numNodes 2
param **.application.usedRNG 1
param **.application.dataGenerationInterval 1ms
param **.application.dataSizeInBytes 10
param **.application.ttl 999999s
param **application.destinationAddr "\"Wf:00:00:00:00:02\""
param **application.destinationBTAddr "\"Bt:00:00:00:00:02\""
param **application.nodesThatGen true
param **application.nodesGenMsg "\"0\""
param **application.startMultipleMsg true
param **application.numMultipleMsg 100
param **application.hopsListSize 50
param **.application.endGeneratingMsg 999999s
param **.routingLayer "\"RoutingLqeGw\""
param **.routing.maximumCacheSize 5000byte
param **.routing.maximumHopCount 25
param **.routing.useTTL false
param **.routing.waitBFsend 0.5
param **.routing.max_age 999999s
param **.routing.gateway_list "\"Wf:00:00:00:00:02;0|.\""
param **.routing.actual_gateway "\"Wf:00:00:00:00:02\""
param **.routing.gwCheckPeriod 5s
param **.neighboring.antiEntropyInterval 500ms
param **.neighboring.maximumRandomBackoffDuration 1s
param **.neighboring.delayPerDataMsg 0.1
param **neighboring.usedRNG 2
param **.neighboring.GWAddr "\"Wf:00:00:00:00:02\""
param **.neighboring.sendWifiFirst true
param **.neighboring.maxLengthGraph 20
param **.neighboring.max_age 999999s
param **.neighboring.max_absent_time 1s
param **.wirelessIfc.wirelessRange 40m
param **.wirelessIfc.neighbourScanInterval 50ms
param **.wirelessIfc.bandwidthBitRate 100000bps
param **.wirelessIfc.wirelessHeaderSize 32byte
param **.wirelessIfc.minSSI -90
param **.wirelessIfc.limitQueueTime 400ms
param **.wirelessIfc.my_limit_rate 0bps
param **.bluetoothIfc.wirelessRange 40m
param **.bluetoothIfc.neighbourScanInterval 100ms
param **.bluetoothIfc.bandwidthBitRate 100000bps
param **.bluetoothIfc.wirelessHeaderSize 16byte
param **.bluetoothIfc.minSSI -90
param **.mobilityType "\"BonnMotionMobility\""
param **.mobility.traceFile "\"paths/Moves2.movements\""
param **.mobility.is3D false
param **.mobility.nodeId -1

vector 0 NetworkTormV2 neighbourhoodSize:vector ETV
attr source neighbourhoodSize
vector 1 NetworkTormV2 deliveryRatio:vector ETV
attr source sum(totalDataBytesReceived)/sum(totalDataBytesReceivableByAllNodes)
vector 2 NetworkTormV2 dataBytesReceivedSum:vector ETV
attr source sum(dataBytesReceived)
vector 3 NetworkTormV2 totalBytesReceivedSum:vector ETV
attr source sum(totalBytesReceived)
0	10	0.05	1
0	11	0.05	2
0	12	0.05	1
0	38	0.1	1
0	39	0.1	2
0	40	0.1	1
0	41	0.1	1
0	42	0.1	2
0	43	0.1	1
0	173	0.15	1
0	174	0.15	2
0	175	0.15	1
0	300	0.2	1
0	301	0.2	2
0	302	0.2	1
0	303	0.2	1
0	304	0.2	2
0	305	0.2	1
0	336	0.25	1
0	337	0.25	2
0	338	0.25	1
0	363	0.3	1
0	364	0.3	2
0	365	0.3	1
0	366	0.3	1
0	367	0.3	2
0	368	0.3	1
0	399	0.35	1
0	400	0.35	2
0	401	0.35	1
0	426	0.4	1
0	427	0.4	2
0	428	0.4	1
0	429	0.4	1
0	430	0.4	2
0	431	0.4	1
0	462	0.45	1
0	463	0.45	2
0	464	0.45	1
0	489	0.5	1
0	490	0.5	2
0	491	0.5	1
0	492	0.5	1
0	493	0.5	2
0	494	0.5	1
0	525	0.55	1
0	526	0.55	2
0	527	0.55	1
0	552	0.6	1
0	553	0.6	2
0	554	0.6	1
0	555	0.6	1
0	556	0.6	2
0	557	0.6	1
0	588	0.65	1
0	589	0.65	2
0	590	0.65	1
0	615	0.7	1
0	616	0.7	2
0	617	0.7	1
0	618	0.7	1
0	619	0.7	2
0	620	0.7	1
0	651	0.75	1
0	652	0.75	2
0	653	0.75	1
0	678	0.8	1
0	679	0.8	2
0	680	0.8	1
0	681	0.8	1
0	682	0.8	2
0	683	0.8	1
0	714	0.85	1
0	715	0.85	2
0	716	0.85	1
0	741	0.9	1
0	742	0.9	2
0	743	0.9	1
0	744	0.9	1
0	745	0.9	2
0	746	0.9	1
0	777	0.95	1
0	778	0.95	2
0	779	0.95	1
0	804	1	1
0	805	1	2
0	806	1	1
0	807	1	1
0	808	1	2
0	809	1	1
0	840	1.05	1
0	841	1.05	2
0	842	1.05	1
0	867	1.1	1
0	868	1.1	2
0	869	1.1	1
0	870	1.1	1
0	871	1.1	2
0	872	1.1	1
0	995	1.15	1
0	996	1.15	2
0	997	1.15	1
0	1022	1.2	1
0	1023	1.2	2
0	1024	1.2	1
0	1025	1.2	1
0	1026	1.2	2
0	1027	1.2	1
0	1058	1.25	1
0	1059	1.25	2
0	1060	1.25	1
0	1085	1.3	1
0	1086	1.3	2
0	1087	1.3	1
0	1088	1.3	1
0	1089	1.3	2
0	1090	1.3	1
0	1121	1.35	1
0	1122	1.35	2
0	1123	1.35	1
0	1148	1.4	1
0	1149	1.4	2
0	1150	1.4	1
0	1151	1.4	1
0	1152	1.4	2
0	1153	1.4	1
0	1184	1.45	1
0	1185	1.45	2
0	1186	1.45	1
0	1211	1.5	1
0	1212	1.5	2
0	1213	1.5	1
0	1214	1.5	1
0	1215	1.5	2
0	1216	1.5	1
0	1247	1.55	1
0	1248	1.55	2
0	1249	1.55	1
0	1274	1.6	1
0	1275	1.6	2
0	1276	1.6	1
0	1277	1.6	1
0	1278	1.6	2
0	1279	1.6	1
0	1310	1.65	1
0	1311	1.65	2
0	1312	1.65	1
0	1639	1.7	1
0	1640	1.7	2
0	1641	1.7	1
0	1642	1.7	1
0	1643	1.7	2
0	1644	1.7	1
0	1737	1.75	1
0	1738	1.75	2
0	1739	1.75	1
0	1836	1.8	1
0	1837	1.8	2
0	1838	1.8	1
0	1839	1.8	1
0	1840	1.8	2
0	1841	1.8	1
0	1926	1.85	1
0	1927	1.85	2
0	1928	1.85	1
0	2025	1.9	1
0	2026	1.9	2
0	2027	1.9	1
0	2028	1.9	1
0	2029	1.9	2
0	2030	1.9	1
0	2118	1.95	1
0	2119	1.95	2
0	2120	1.95	1
0	2194	2	1
0	2195	2	2
0	2196	2	1
0	2197	2	1
0	2198	2	2
0	2199	2	1
0	2302	2.05	1
0	2303	2.05	2
0	2304	2.05	1
0	2378	2.1	1
0	2379	2.1	2
0	2380	2.1	1
0	2381	2.1	1
0	2382	2.1	2
0	2383	2.1	1
0	2476	2.15	1
0	2477	2.15	2
0	2478	2.15	1
0	2575	2.2	1
0	2576	2.2	2
0	2577	2.2	1
0	2578	2.2	1
0	2579	2.2	2
0	2580	2.2	1
0	2784	2.25	1
0	2785	2.25	2
0	2786	2.25	1
0	2917	2.3	1
0	2918	2.3	2
0	2919	2.3	1
0	2920	2.3	1
0	2921	2.3	2
0	2922	2.3	1
0	3050	2.35	1
0	3051	2.35	2
0	3052	2.35	1
0	3178	2.4	1
0	3179	2.4	2
0	3180	2.4	1
0	3181	2.4	1
0	3182	2.4	2
0	3183	2.4	1
0	3314	2.45	1
0	3315	2.45	2
0	3316	2.45	1
0	3428	2.5	1
0	3429	2.5	2
0	3430	2.5	1
0	3431	2.5	1
0	3432	2.5	2
0	3433	2.5	1
0	3564	2.55	1
0	3565	2.55	2
0	3566	2.55	1
0	3699	2.6	1
0	3700	2.6	2
0	3701	2.6	1
0	3702	2.6	1
0	3703	2.6	2
0	3704	2.6	1
0	3830	2.65	1
0	3831	2.65	2
0	3832	2.65	1
0	3966	2.7	1
0	3967	2.7	2
0	3968	2.7	1
0	3969	2.7	1
0	3970	2.7	2
0	3971	2.7	1
0	4092	2.75	1
0	4093	2.75	2
0	4094	2.75	1
0	4275	2.8	1
0	4276	2.8	2
0	4277	2.8	1
0	4278	2.8	1
0	4279	2.8	2
0	4280	2.8	1
0	4483	2.85	1
0	4484	2.85	2
0	4485	2.85	1
0	4738	2.9	1
0	4739	2.9	2
0	4740	2.9	1
0	4741	2.9	1
0	4742	2.9	2
0	4743	2.9	1
0	4879	2.95	1
0	4880	2.95	2
0	4881	2.95	1
0	5017	3	1
0	5018	3	2
0	5019	3	1
0	5020	3	1
0	5021	3	2
0	5022	3	1
0	5144	3.05	1
0	5145	3.05	2
0	5146	3.05	1
0	5231	3.1	1
0	5232	3.1	2
0	5233	3.1	1
0	5234	3.1	1
0	5235	3.1	2
0	5236	3.1	1
0	5343	3.15	1
0	5344	3.15	2
0	5345	3.15	1
0	5427	3.2	1
0	5428	3.2	2
0	5429	3.2	1
0	5430	3.2	1
0	5431	3.2	2
0	5432	3.2	1
0	5539	3.25	1
0	5540	3.25	2
0	5541	3.25	1
0	5634	3.3	1
0	5635	3.3	2
0	5636	3.3	1
0	5637	3.3	1
0	5638	3.3	2
0	5639	3.3	1
0	5742	3.35	1
0	5743	3.35	2
0	5744	3.35	1
0	5845	3.4	1
0	5846	3.4	2
0	5847	3.4	1
0	5848	3.4	1
0	5849	3.4	2
0	5850	3.4	1
0	5933	3.45	1
0	5934	3.45	2
0	5935	3.45	1
0	6036	3.5	1
0	6037	3.5	2
0	6038	3.5	1
0	6039	3.5	1
0	6040	3.5	2
0	6041	3.5	1
0	6108	3.55	1
0	6109	3.55	2
0	6110	3.55	1
0	6196	3.6	1
0	6197	3.6	2
0	6198	3.6	1
0	6199	3.6	1
0	6200	3.6	2
0	6201	3.6	1
0	6331	3.65	1
0	6332	3.65	2
0	6333	3.65	1
0	6426	3.7	1
0	6427	3.7	2
0	6428	3.7	1
0	6429	3.7	1
0	6430	3.7	2
0	6431	3.7	1
0	6527	3.75	1
0	6528	3.75	2
0	6529	3.75	1
0	6630	3.8	1
0	6631	3.8	2
0	6632	3.8	1
0	6633	3.8	1
0	6634	3.8	2
0	6635	3.8	1
0	6742	3.85	1
0	6743	3.85	2
0	6744	3.85	1
0	6840	3.9	1
0	6841	3.9	2
0	6842	3.9	1
0	6843	3.9	1
0	6844	3.9	2
0	6845	3.9	1
0	7019	3.95	1
0	7020	3.95	2
0	7021	3.95	1
0	7118	4	1
0	7119	4	2
0	7120	4	1
0	7121	4	1
0	7122	4	2
0	7123	4	1
0	7216	4.05	1
0	7217	4.05	2
0	7218	4.05	1
0	7292	4.1	1
0	7293	4.1	2
0	7294	4.1	1
0	7295	4.1	1
0	7296	4.1	2
0	7297	4.1	1
0	7400	4.15	1
0	7401	4.15	2
0	7402	4.15	1
0	7481	4.2	1
0	7482	4.2	2
0	7483	4.2	1
0	7484	4.2	1
0	7485	4.2	2
0	7486	4.2	1
0	7569	4.25	1
0	7570	4.25	2
0	7571	4.25	1
0	7660	4.3	1
0	7661	4.3	2
0	7662	4.3	1
0	7663	4.3	1
0	7664	4.3	2
0	7665	4.3	1
0	7758	4.35	1
0	7759	4.35	2
0	7760	4.35	1
0	7867	4.4	1
0	7868	4.4	2
0	7869	4.4	1
0	7870	4.4	1
0	7871	4.4	2
0	7872	4.4	1
0	7983	4.45	1
0	7984	4.45	2
0	7985	4.45	1
0	8028	4.5	1
0	8029	4.5	2
0	8030	4.5	1
0	8031	4.5	1
0	8032	4.5	2
0	8033	4.5	1
0	8064	4.55	1
0	8065	4.55	2
0	8066	4.55	1
0	8091	4.6	1
0	8092	4.6	2
0	8093	4.6	1
0	8094	4.6	1
0	8095	4.6	2
0	8096	4.6	1
0	8127	4.65	1
0	8128	4.65	2
0	8129	4.65	1
0	8154	4.7	1
0	8155	4.7	2
0	8156	4.7	1
0	8157	4.7	1
0	8158	4.7	2
0	8159	4.7	1
0	8190	4.75	1
0	8191	4.75	2
0	8192	4.75	1
0	8217	4.8	1
0	8218	4.8	2
0	8219	4.8	1
0	8220	4.8	1
0	8221	4.8	2
0	8222	4.8	1
0	8253	4.85	1
0	8254	4.85	2
0	8255	4.85	1
0	8280	4.9	1
0	8281	4.9	2
0	8282	4.9	1
0	8283	4.9	1
0	8284	4.9	2
0	8285	4.9	1
0	8344	4.95	1
0	8345	4.95	2
0	8346	4.95	1
0	8374	5	1
0	8375	5	2
0	8376	5	1
0	8377	5	1
0	8378	5	2
0	8379	5	1
0	8410	5.05	1
0	8411	5.05	2
0	8412	5.05	1
0	8437	5.1	1
0	8438	5.1	2
0	8439	5.1	1
0	8440	5.1	1
0	8441	5.1	2
0	8442	5.1	1
0	8473	5.15	1
0	8474	5.15	2
0	8475	5.15	1
0	8500	5.2	1
0	8501	5.2	2
0	8502	5.2	1
0	8503	5.2	1
0	8504	5.2	2
0	8505	5.2	1
0	8536	5.25	1
0	8537	5.25	2
0	8538	5.25	1
0	8563	5.3	1
0	8564	5.3	2
0	8565	5.3	1
0	8566	5.3	1
0	8567	5.3	2
0	8568	5.3	1
0	8599	5.35	1
0	8600	5.35	2
0	8601	5.35	1
0	8626	5.4	1
0	8627	5.4	2
0	8628	5.4	1
0	8629	5.4	1
0	8630	5.4	2
0	8631	5.4	1
0	8662	5.45	1
0	8663	5.45	2
0	8664	5.45	1
0	8735	5.5	1
0	8736	5.5	2
0	8737	5.5	1
0	8738	5.5	1
0	8739	5.5	2
0	8740	5.5	1
0	8771	5.55	1
0	8772	5.55	2
0	8773	5.55	1
0	8798	5.6	1
0	8799	5.6	2
0	8800	5.6	1
0	8801	5.6	1
0	8802	5.6	2
0	8803	5.6	1
0	8959	5.65	1
0	8960	5.65	2
0	8961	5.65	1
0	9051	5.7	1
0	9052	5.7	2
0	9053	5.7	1
0	9054	5.7	1
0	9055	5.7	2
0	9056	5.7	1
0	9147	5.75	1
0	9148	5.75	2
0	9149	5.75	1
0	9231	5.8	1
0	9232	5.8	2
0	9233	5.8	1
0	9234	5.8	1
0	9235	5.8	2
0	9236	5.8	1
0	9343	5.85	1
0	9344	5.85	2
0	9345	5.85	1
0	9438	5.9	1
0	9439	5.9	2
0	9440	5.9	1
0	9441	5.9	1
0	9442	5.9	2
0	9443	5.9	1
0	9539	5.95	1
0	9540	5.95	2
0	9541	5.95	1
0	9645	6	1
0	9646	6	2
0	9647	6	1
0	9648	6	1
0	9649	6	2
0	9650	6	1
0	9777	6.05	1
0	9778	6.05	2
0	9779	6.05	1
0	9869	6.1	1
0	9870	6.1	2
0	9871	6.1	1
0	9872	6.1	1
0	9873	6.1	2
0	9874	6.1	1
0	9942	6.15	1
0	9943	6.15	2
0	9944	6.15	1
0	10028	6.2	1
0	10029	6.2	2
0	10030	6.2	1
0	10031	6.2	1
0	10032	6.2	2
0	10033	6.2	1
0	10072	6.25	1
0	10073	6.25	2
0	10074	6.25	1
0	10099	6.3	1
0	10100	6.3	2
0	10101	6.3	1
0	10102	6.3	1
0	10103	6.3	2
0	10104	6.3	1
0	10135	6.35	1
0	10136	6.35	2
0	10137	6.35	1
0	10162	6.4	1
0	10163	6.4	2
0	10164	6.4	1
0	10165	6.4	1
0	10166	6.4	2
0	10167	6.4	1
0	10198	6.45	1
0	10199	6.45	2
0	10200	6.45	1
0	10225	6.5	1
0	10226	6.5	2
0	10227	6.5	1
0	10228	6.5	1
0	10229	6.5	2
0	10230	6.5	1
0	10261	6.55	1
0	10262	6.55	2
0	10263	6.55	1
0	10334	6.6	1
0	10335	6.6	2
0	10336	6.6	1
0	10337	6.6	1
0	10338	6.6	2
0	10339	6.6	1
0	10370	6.65	1
0	10371	6.65	2
0	10372	6.65	1
0	10397	6.7	1
0	10398	6.7	2
0	10399	6.7	1
0	10400	6.7	1
0	10401	6.7	2
0	10402	6.7	1
0	10479	6.75	1
0	10480	6.75	2
0	10481	6.75	1
0	10506	6.8	1
0	10507	6.8	2
0	10508	6.8	1
0	10509	6.8	1
0	10510	6.8	2
0	10511	6.8	1
0	10542	6.85	1
0	10543	6.85	2
0	10544	6.85	1
0	10569	6.9	1
0	10570	6.9	2
0	10571	6.9	1
0	10572	6.9	1
0	10573	6.9	2
0	10574	6.9	1
0	10605	6.95	1
0	10606	6.95	2
0	10607	6.95	1
0	10635	7	1
0	10636	7	2
0	10637	7	1
0	10638	7	1
0	10639	7	2
0	10640	7	1
0	10671	7.05	1
0	10672	7.05	2
0	10673	7.05	1
0	10698	7.1	1
0	10699	7.1	2
0	10700	7.1	1
0	10701	7.1	1
0	10702	7.1	2
0	10703	7.1	1
0	10780	7.15	1
0	10781	7.15	2
0	10782	7.15	1
0	10807	7.2	1
0	10808	7.2	2
0	10809	7.2	1
0	10810	7.2	1
0	10811	7.2	2
0	10812	7.2	1
0	10843	7.25	1
0	10844	7.25	2
0	10845	7.25	1
0	10916	7.3	1
0	10917	7.3	2
0	10918	7.3	1
0	10919	7.3	1
0	10920	7.3	2
0	10921	7.3	1
0	10952	7.35	1
0	10953	7.35	2
0	10954	7.35	1
0	10979	7.4	1
0	10980	7.4	2
0	10981	7.4	1
0	10982	7.4	1
0	10983	7.4	2
0	10984	7.4	1
0	11015	7.45	1
0	11016	7.45	2
0	11017	7.45	1
0	11042	7.5	1
0	11043	7.5	2
0	11044	7.5	1
0	11045	7.5	1
0	11046	7.5	2
0	11047	7.5	1
0	11078	7.55	1
0	11079	7.55	2
0	11080	7.55	1
0	11105	7.6	1
0	11106	7.6	2
0	11107	7.6	1
0	11108	7.6	1
0	11109	7.6	2
0	11110	7.6	1
0	11141	7.65	1
0	11142	7.65	2
0	11143	7.65	1
0	11214	7.7	1
0	11215	7.7	2
0	11216	7.7	1
0	11217	7.7	1
0	11218	7.7	2
0	11219	7.7	1
0	11250	7.75	1
0	11251	7.75	2
0	11252	7.75	1
0	11277	7.8	1
0	11278	7.8	2
0	11279	7.8	1
0	11280	7.8	1
0	11281	7.8	2
0	11282	7.8	1
0	11359	7.85	1
0	11360	7.85	2
0	11361	7.85	1
0	11386	7.9	1
0	11387	7.9	2
0	11388	7.9	1
0	11389	7.9	1
0	11390	7.9	2
0	11391	7.9	1
0	11422	7.95	1
0	11423	7.95	2
0	11424	7.95	1
0	11449	8	1
0	11450	8	2
0	11451	8	1
0	11452	8	1
0	11453	8	2
0	11454	8	1
0	11485	8.05	1
0	11486	8.05	2
0	11487	8.05	1
0	11512	8.1	1
0	11513	8.1	2
0	11514	8.1	1
0	11515	8.1	1
0	11516	8.1	2
0	11517	8.1	1
0	11548	8.15	1
0	11549	8.15	2
0	11550	8.15	1
0	11603	8.2	1
0	11604	8.2	2
0	11605	8.2	1
0	11606	8.2	1
0	11607	8.2	2
0	11608	8.2	1
0	11639	8.25	1
0	11640	8.25	2
0	11641	8.25	1
0	11666	8.3	1
0	11667	8.3	2
0	11668	8.3	1
0	11669	8.3	1
0	11670	8.3	2
0	11671	8.3	1
0	11702	8.35	1
0	11703	8.35	2
0	11704	8.35	1
0	11752	8.4	1
0	11753	8.4	2
0	11754	8.4	1
0	11755	8.4	1
0	11756	8.4	2
0	11757	8.4	1
0	11788	8.45	1
0	11789	8.45	2
0	11790	8.45	1
0	11815	8.5	1
0	11816	8.5	2
0	11817	8.5	1
0	11818	8.5	1
0	11819	8.5	2
0	11820	8.5	1
0	11851	8.55	1
0	11852	8.55	2
0	11853	8.55	1
0	11878	8.6	1
0	11879	8.6	2
0	11880	8.6	1
0	11881	8.6	1
0	11882	8.6	2
0	11883	8.6	1
0	11914	8.65	1
0	11915	8.65	2
0	11916	8.65	1
0	11941	8.7	1
0	11942	8.7	2
0	11943	8.7	1
0	11944	8.7	1
0	11945	8.7	2
0	11946	8.7	1
0	12000	8.75	1
0	12001	8.75	2
0	12002	8.75	1
0	12027	8.8	1
0	12028	8.8	2
0	12029	8.8	1
0	12030	8.8	1
0	12031	8.8	2
0	12032	8.8	1
0	12063	8.85	1
0	12064	8.85	2
0	12065	8.85	1
0	12090	8.9	1
0	12091	8.9	2
0	12092	8.9	1
0	12093	8.9	1
0	12094	8.9	2
0	12095	8.9	1
0	12149	8.95	1
0	12150	8.95	2
0	12151	8.95	1
0	12176	9	1
0	12177	9	2
0	12178	9	1
0	12179	9	1
0	12180	9	2
0	12181	9	1
0	12212	9.05	1
0	12213	9.05	2
0	12214	9.05	1
0	12239	9.1	1
0	12240	9.1	2
0	12241	9.1	1
0	12242	9.1	1
0	12243	9.1	2
0	12244	9.1	1
0	12275	9.15	1
0	12276	9.15	2
0	12277	9.15	1
0	12302	9.2	1
0	12303	9.2	2
0	12304	9.2	1
0	12305	9.2	1
0	12306	9.2	2
0	12307	9.2	1
0	12338	9.25	1
0	12339	9.25	2
0	12340	9.25	1
0	12388	9.3	1
0	12389	9.3	2
0	12390	9.3	1
0	12391	9.3	1
0	12392	9.3	2
0	12393	9.3	1
0	12424	9.35	1
0	12425	9.35	2
0	12426	9.35	1
0	12451	9.4	1
0	12452	9.4	2
0	12453	9.4	1
0	12454	9.4	1
0	12455	9.4	2
0	12456	9.4	1
0	12510	9.45	1
0	12511	9.45	2
0	12512	9.45	1
0	12560	9.5	1
0	12561	9.5	2
0	12562	9.5	1
0	12563	9.5	1
0	12564	9.5	2
0	12565	9.5	1
0	12596	9.55	1
0	12597	9.55	2
0	12598	9.55	1
0	12646	9.6	1
0	12647	9.6	2
0	12648	9.6	1
0	12649	9.6	1
0	12650	9.6	2
0	12651	9.6	1
0	12682	9.65	1
0	12683	9.65	2
0	12684	9.65	1
0	12709	9.7	1
0	12710	9.7	2
0	12711	9.7	1
0	12712	9.7	1
0	12713	9.7	2
0	12714	9.7	1
0	12745	9.75	1
0	12746	9.75	2
0	12747	9.75	1
0	12772	9.8	1
0	12773	9.8	2
0	12774	9.8	1
0	12775	9.8	1
0	12776	9.8	2
0	12777	9.8	1
0	12831	9.85	1
0	12832	9.85	2
0	12833	9.85	1
0	12858	9.9	1
0	12859	9.9	2
0	12860	9.9	1
0	12861	9.9	1
0	12862	9.9	2
0	12863	9.9	1
0	12894	9.95	1
0	12895	9.95	2
0	12896	9.95	1
0	12944	10	1
0	12945	10	2
0	12946	10	1
0	12947	10	1
0	12948	10	2
0	12949	10	1
0	13003	10.05	1
0	13004	10.05	2
0	13005	10.05	1
0	13030	10.1	1
0	13031	10.1	2
0	13032	10.1	1
0	13033	10.1	1
0	13034	10.1	2
0	13035	10.1	1
0	13089	10.15	1
0	13090	10.15	2
0	13091	10.15	1
0	13116	10.2	1
0	13117	10.2	2
0	13118	10.2	1
0	13119	10.2	1
0	13120	10.2	2
0	13121	10.2	1
0	13152	10.25	1
0	13153	10.25	2
0	13154	10.25	1
0	13179	10.3	1
0	13180	10.3	2
0	13181	10.3	1
0	13182	10.3	1
0	13183	10.3	2
0	13184	10.3	1
0	13215	10.35	1
0	13216	10.35	2
0	13217	10.35	1
0	13265	10.4	1
0	13266	10.4	2
0	13267	10.4	1
0	13268	10.4	1
0	13269	10.4	2
0	13270	10.4	1
0	13301	10.45	1
0	13302	10.45	2
0	13303	10.45	1
0	13328	10.5	1
0	13329	10.5	2
0	13330	10.5	1
0	13331	10.5	1
0	13332	10.5	2
0	13333	10.5	1
0	13387	10.55	1
0	13388	10.55	2
0	13389	10.55	1
0	13419	10.6	1
0	13420	10.6	2
0	13421	10.6	1
0	13422	10.6	1
0	13423	10.6	2
0	13424	10.6	1
0	13455	10.65	1
0	13456	10.65	2
0	13457	10.65	1
0	13505	10.7	1
0	13506	10.7	2
0	13507	10.7	1
0	13508	10.7	1
0	13509	10.7	2
0	13510	10.7	1
0	13541	10.75	1
0	13542	10.75	2
0	13543	10.75	1
0	13568	10.8	1
0	13569	10.8	2
0	13570	10.8	1
0	13571	10.8	1
0	13572	10.8	2
0	13573	10.8	1
0	13604	10.85	1
0	13605	10.85	2
0	13606	10.85	1
0	13631	10.9	1
0	13632	10.9	2
0	13633	10.9	1
0	13634	10.9	1
0	13635	10.9	2
0	13636	10.9	1
0	13667	10.95	1
0	13668	10.95	2
0	13669	10.95	1
0	13694	11	1
0	13695	11	2
0	13696	11	1
0	13697	11	1
0	13698	11	2
0	13699	11	1
0	13730	11.05	1
0	13731	11.05	2
0	13732	11.05	1
0	13780	11.1	1
0	13781	11.1	2
0	13782	11.1	1
0	13783	11.1	1
0	13784	11.1	2
0	13785	11.1	1
0	13816	11.15	1
0	13817	11.15	2
0	13818	11.15	1
0	13843	11.2	1
0	13844	11.2	2
0	13845	11.2	1
0	13846	11.2	1
0	13847	11.2	2
0	13848	11.2	1
0	13902	11.25	1
0	13903	11.25	2
0	13904	11.25	1
0	13929	11.3	1
0	13930	11.3	2
0	13931	11.3	1
0	13932	11.3	1
0	13933	11.3	2
0	13934	11.3	1
0	13965	11.35	1
0	13966	11.35	2
0	13967	11.35	1
0	13992	11.4	1
0	13993	11.4	2
0	13994	11.4	1
0	13995	11.4	1
0	13996	11.4	2
0	13997	11.4	1
0	14028	11.45	1
0	14029	11.45	2
0	14030	11.45	1
0	14055	11.5	1
0	14056	11.5	2
0	14057	11.5	1
0	14058	11.5	1
0	14059	11.5	2
0	14060	11.5	1
0	14091	11.55	1
0	14092	11.55	2
0	14093	11.55	1
0	14118	11.6	1
0	14119	11.6	2
0	14120	11.6	1
0	14121	11.6	1
0	14122	11.6	2
0	14123	11.6	1
0	14171	11.65	1
0	14172	11.65	2
0	14173	11.65	1
0	14198	11.7	1
0	14199	11.7	2
0	14200	11.7	1
0	14201	11.7	1
0	14202	11.7	2
0	14203	11.7	1
0	14234	11.75	1
0	14235	11.75	2
0	14236	11.75	1
0	14284	11.8	1
0	14285	11.8	2
0	14286	11.8	1
0	14287	11.8	1
0	14288	11.8	2
0	14289	11.8	1
0	14320	11.85	1
0	14321	11.85	2
0	14322	11.85	1
0	14347	11.9	1
0	14348	11.9	2
0	14349	11.9	1
0	14350	11.9	1
0	14351	11.9	2
0	14352	11.9	1
0	14383	11.95	1
0	14384	11.95	2
0	14385	11.95	1
0	14436	12	1
0	14437	12	2
0	14438	12	1
0	14439	12	1
0	14440	12	2
0	14441	12	1
0	14472	12.05	1
0	14473	12.05	2
0	14474	12.05	1
0	14499	12.1	1
0	14500	12.1	2
0	14501	12.1	1
0	14502	12.1	1
0	14503	12.1	2
0	14504	12.1	1
0	14558	12.15	1
0	14559	12.15	2
0	14560	12.15	1
0	14608	12.2	1
0	14609	12.2	2
0	14610	12.2	1
0	14611	12.2	1
0	14612	12.2	2
0	14613	12.2	1
0	14644	12.25	1
0	14645	12.25	2
0	14646	12.25	1
0	14671	12.3	1
0	14672	12.3	2
0	14673	12.3	1
0	14674	12.3	1
0	14675	12.3	2
0	14676	12.3	1
0	14730	12.35	1
0	14731	12.35	2
0	14732	12.35	1
0	14757	12.4	1
0	14758	12.4	2
0	14759	12.4	1
0	14760	12.4	1
0	14761	12.4	2
0	14762	12.4	1
0	14793	12.45	1
0	14794	12.45	2
0	14795	12.45	1
0	14820	12.5	1
0	14821	12.5	2
0	14822	12.5	1
0	14823	12.5	1
0	14824	12.5	2
0	14825	12.5	1
0	14879	12.55	1
0	14880	12.55	2
0	14881	12.55	1
0	14906	12.6	1
0	14907	12.6	2
0	14908	12.6	1
0	14909	12.6	1
0	14910	12.6	2
0	14911	12.6	1
0	14942	12.65	1
0	14943	12.65	2
0	14944	12.65	1
0	14992	12.7	1
0	14993	12.7	2
0	14994	12.7	1
0	14995	12.7	1
0	14996	12.7	2
0	14997	12.7	1
0	15051	12.75	1
0	15052	12.75	2
0	15053	12.75	1
0	15078	12.8	1
0	15079	12.8	2
0	15080	12.8	1
0	15081	12.8	1
0	15082	12.8	2
0	15083	12.8	1
0	15114	12.85	1
0	15115	12.85	2
0	15116	12.85	1
0	15164	12.9	1
0	15165	12.9	2
0	15166	12.9	1
0	15167	12.9	1
0	15168	12.9	2
0	15169	12.9	1
0	15200	12.95	1
0	15201	12.95	2
0	15202	12.95	1
0	15227	13	1
0	15228	13	2
0	15229	13	1
0	15230	13	1
0	15231	13	2
0	15232	13	1
0	15263	13.05	1
0	15264	13.05	2
0	15265	13.05	1
0	15307	13.1	1
0	15308	13.1	2
0	15309	13.1	1
0	15310	13.1	1
0	15311	13.1	2
0	15312	13.1	1
0	15343	13.15	1
0	15344	13.15	2
0	15345	13.15	1
0	15370	13.2	1
0	15371	13.2	2
0	15372	13.2	1
0	15373	13.2	1
0	15374	13.2	2
0	15375	13.2	1
0	15429	13.25	1
0	15430	13.25	2
0	15431	13.25	1
0	15479	13.3	1
0	15480	13.3	2
0	15481	13.3	1
0	15482	13.3	1
0	15483	13.3	2
0	15484	13.3	1
0	15515	13.35	1
0	15516	13.35	2
0	15517	13.35	1
0	15542	13.4	1
0	15543	13.4	2
0	15544	13.4	1
0	15545	13.4	1
0	15546	13.4	2
0	15547	13.4	1
0	15601	13.45	1
0	15602	13.45	2
0	15603	13.45	1
0	15628	13.5	1
0	15629	13.5	2
0	15630	13.5	1
0	15631	13.5	1
0	15632	13.5	2
0	15633	13.5	1
0	15664	13.55	1
0	15665	13.55	2
0	15666	13.55	1
0	15691	13.6	1
0	15692	13.6	2
0	15693	13.6	1
0	15694	13.6	1
0	15695	13.6	2
0	15696	13.6	1
0	15750	13.65	1
0	15751	13.65	2
0	15752	13.65	1
0	15777	13.7	1
0	15778	13.7	2
0	15779	13.7	1
0	15780	13.7	1
0	15781	13.7	2
0	15782	13.7	1
0	15813	13.75	1
0	15814	13.75	2
0	15815	13.75	1
0	15863	13.8	1
0	15864	13.8	2
0	15865	13.8	1
0	15866	13.8	1
0	15867	13.8	2
0	15868	13.8	1
0	15922	13.85	1
0	15923	13.85	2
0	15924	13.85	1
0	15949	13.9	1
0	15950	13.9	2
0	15951	13.9	1
0	15952	13.9	1
0	15953	13.9	2
0	15954	13.9	1
0	15985	13.95	1
0	15986	13.95	2
0	15987	13.95	1
0	16035	14	1
0	16036	14	2
0	16037	14	1
0	16038	14	1
0	16039	14	2
0	16040	14	1
0	16071	14.05	1
0	16072	14.05	2
0	16073	14.05	1
0	16098	14.1	1
0	16099	14.1	2
0	16100	14.1	1
0	16101	14.1	1
0	16102	14.1	2
0	16103	14.1	1
0	16134	14.15	1
0	16135	14.15	2
0	16136	14.15	1
0	16184	14.2	1
0	16185	14.2	2
0	16186	14.2	1
0	16187	14.2	1
0	16188	14.2	2
0	16189	14.2	1
0	16220	14.25	1
0	16221	14.25	2
0	16222	14.25	1
0	16247	14.3	1
0	16248	14.3	2
0	16249	14.3	1
0	16250	14.3	1
0	16251	14.3	2
0	16252	14.3	1
0	16306	14.35	1
0	16307	14.35	2
0	16308	14.35	1
0	16356	14.4	1
0	16357	14.4	2
0	16358	14.4	1
0	16359	14.4	1
0	16360	14.4	2
0	16361	14.4	1
0	16392	14.45	1
0	16393	14.45	2
0	16394	14.45	1
0	16419	14.5	1
0	16420	14.5	2
0	16421	14.5	1
0	16422	14.5	1
0	16423	14.5	2
0	16424	14.5	1
0	16478	14.55	1
0	16479	14.55	2
0	16480	14.55	1
0	16505	14.6	1
0	16506	14.6	2
0	16507	14.6	1
0	16508	14.6	1
0	16509	14.6	2
0	16510	14.6	1
0	16541	14.65	1
0	16542	14.65	2
0	16543	14.65	1
0	16568	14.7	1
0	16569	14.7	2
0	16570	14.7	1
0	16571	14.7	1
0	16572	14.7	2
0	16573	14.7	1
0	16627	14.75	1
0	16628	14.75	2
0	16629	14.75	1
0	16654	14.8	1
0	16655	14.8	2
0	16656	14.8	1
0	16657	14.8	1
0	16658	14.8	2
0	16659	14.8	1
0	16690	14.85	1
0	16691	14.85	2
0	16692	14.85	1
0	16740	14.9	1
0	16741	14.9	2
0	16742	14.9	1
0	16743	14.9	1
0	16744	14.9	2
0	16745	14.9	1
0	16799	14.95	1
0	16800	14.95	2
0	16801	14.95	1
0	16826	15	1
0	16827	15	2
0	16828	15	1
0	16829	15	1
0	16830	15	2
0	16831	15	1
0	16862	15.05	1
0	16863	15.05	2
0	16864	15.05	1
0	16912	15.1	1
0	16913	15.1	2
0	16914	15.1	1
0	16915	15.1	1
0	16916	15.1	2
0	16917	15.1	1
0	16948	15.15	1
0	16949	15.15	2
0	16950	15.15	1
0	16975	15.2	1
0	16976	15.2	2
0	16977	15.2	1
0	16978	15.2	1
0	16979	15.2	2
0	16980	15.2	1
0	17011	15.25	1
0	17012	15.25	2
0	17013	15.25	1
0	17061	15.3	1
0	17062	15.3	2
0	17063	15.3	1
0	17064	15.3	1
0	17065	15.3	2
0	17066	15.3	1
0	17097	15.35	1
0	17098	15.35	2
0	17099	15.35	1
0	17124	15.4	1
0	17125	15.4	2
0	17126	15.4	1
0	17127	15.4	1
0	17128	15.4	2
0	17129	15.4	1
0	17183	15.45	1
0	17184	15.45	2
0	17185	15.45	1
0	17233	15.5	1
0	17234	15.5	2
0	17235	15.5	1
0	17236	15.5	1
0	17237	15.5	2
0	17238	15.5	1
0	17269	15.55	1
0	17270	15.55	2
0	17271	15.55	1
0	17296	15.6	1
0	17297	15.6	2
0	17298	15.6	1
0	17299	15.6	1
0	17300	15.6	2
0	17301	15.6	1
0	17355	15.65	1
0	17356	15.65	2
0	17357	15.65	1
0	17382	15.7	1
0	17383	15.7	2
0	17384	15.7	1
0	17385	15.7	1
0	17386	15.7	2
0	17387	15.7	1
0	17418	15.75	1
0	17419	15.75	2
0	17420	15.75	1
0	17445	15.8	1
0	17446	15.8	2
0	17447	15.8	1
0	17448	15.8	1
0	17449	15.8	2
0	17450	15.8	1
0	17504	15.85	1
0	17505	15.85	2
0	17506	15.85	1
0	17531	15.9	1
0	17532	15.9	2
0	17533	15.9	1
0	17534	15.9	1
0	17535	15.9	2
0	17536	15.9	1
0	17567	15.95	1
0	17568	15.95	2
0	17569	15.95	1
0	17617	16	1
0	17618	16	2
0	17619	16	1
0	17620	16	1
0	17621	16	2
0	17622	16	1
0	17676	16.05	1
0	17677	16.05	2
0	17678	16.05	1
0	17703	16.1	1
0	17704	16.1	2
0	17705	16.1	1
0	17706	16.1	1
0	17707	16.1	2
0	17708	16.1	1
0	17739	16.15	1
0	17740	16.15	2
0	17741	16.15	1
0	17789	16.2	1
0	17790	16.2	2
0	17791	16.2	1
0	17792	16.2	1
0	17793	16.2	2
0	17794	16.2	1
0	17825	16.25	1
0	17826	16.25	2
0	17827	16.25	1
0	17852	16.3	1
0	17853	16.3	2
0	17854	16.3	1
0	17855	16.3	1
0	17856	16.3	2
0	17857	16.3	1
0	17911	16.35	1
0	17912	16.35	2
0	17913	16.35	1
0	17938	16.4	1
0	17939	16.4	2
0	17940	16.4	1
0	17941	16.4	1
0	17942	16.4	2
0	17943	16.4	1
0	17974	16.45	1
0	17975	16.45	2
0	17976	16.45	1
0	18001	16.5	1
0	18002	16.5	2
0	18003	16.5	1
0	18004	16.5	1
0	18005	16.5	2
0	18006	16.5	1
0	18060	16.55	1
0	18061	16.55	2
0	18062	16.55	1
0	18110	16.6	1
0	18111	16.6	2
0	18112	16.6	1
0	18113	16.6	1
0	18114	16.6	2
0	18115	16.6	1
0	18146	16.65	1
0	18147	16.65	2
0	18148	16.65	1
0	18173	16.7	1
0	18174	16.7	2
0	18175	16.7	1
0	18176	16.7	1
0	18177	16.7	2
0	18178	16.7	1
0	18232	16.75	1
0	18233	16.75	2
0	18234	16.75	1
0	18259	16.8	1
0	18260	16.8	2
0	18261	16.8	1
0	18262	16.8	1
0	18263	16.8	2
0	18264	16.8	1
0	18295	16.85	1
0	18296	16.85	2
0	18297	16.85	1
0	18345	16.9	1
0	18346	16.9	2
0	18347	16.9	1
0	18348	16.9	1
0	18349	16.9	2
0	18350	16.9	1
0	18381	16.95	1
0	18382	16.95	2
0	18383	16.95	1
0	18411	17	1
0	18412	17	2
0	18413	17	1
0	18414	17	1
0	18415	17	2
0	18416	17	1
0	18447	17.05	1
0	18448	17.05	2
0	18449	17.05	1
0	18497	17.1	1
0	18498	17.1	2
0	18499	17.1	1
0	18500	17.1	1
0	18501	17.1	2
0	18502	17.1	1
0	18556	17.15	1
0	18557	17.15	2
0	18558	17.15	1
0	18583	17.2	1
0	18584	17.2	2
0	18585	17.2	1
0	18586	17.2	1
0	18587	17.2	2
0	18588	17.2	1
0	18619	17.25	1
0	18620	17.25	2
0	18621	17.25	1
0	18669	17.3	1
0	18670	17.3	2
0	18671	17.3	1
0	18672	17.3	1
0	18673	17.3	2
0	18674	17.3	1
0	18705	17.35	1
0	18706	17.35	2
0	18707	17.35	1
0	18732	17.4	1
0	18733	17.4	2
0	18734	17.4	1
0	18735	17.4	1
0	18736	17.4	2
0	18737	17.4	1
0	18791	17.45	1
0	18792	17.45	2
0	18793	17.45	1
0	18818	17.5	1
0	18819	17.5	2
0	18820	17.5	1
0	18821	17.5	1
0	18822	17.5	2
0	18823	17.5	1
0	18854	17.55	1
0	18855	17.55	2
0	18856	17.55	1
0	18881	17.6	1
0	18882	17.6	2
0	18883	17.6	1
0	18884	17.6	1
0	18885	17.6	2
0	18886	17.6	1
0	18940	17.65	1
0	18941	17.65	2
0	18942	17.65	1
0	18990	17.7	1
0	18991	17.7	2
0	18992	17.7	1
0	18993	17.7	1
0	18994	17.7	2
0	18995	17.7	1
0	19026	17.75	1
0	19027	17.75	2
0	19028	17.75	1
0	19053	17.8	1
0	19054	17.8	2
0	19055	17.8	1
0	19056	17.8	1
0	19057	17.8	2
0	19058	17.8	1
0	19112	17.85	1
0	19113	17.85	2
0	19114	17.85	1
0	19139	17.9	1
0	19140	17.9	2
0	19141	17.9	1
0	19142	17.9	1
0	19143	17.9	2
0	19144	17.9	1
0	19175	17.95	1
0	19176	17.95	2
0	19177	17.95	1
0	19225	18	1
0	19226	18	2
0	19227	18	1
0	19228	18	1
0	19229	18	2
0	19230	18	1
0	19261	18.05	1
0	19262	18.05	2
0	19263	18.05	1
0	19288	18.1	1
0	19289	18.1	2
0	19290	18.1	1
0	19291	18.1	1
0	19292	18.1	2
0	19293	18.1	1
0	19324	18.15	1
0	19325	18.15	2
0	19326	18.15	1
0	19374	18.2	1
0	19375	18.2	2
0	19376	18.2	1
0	19377	18.2	1
0	19378	18.2	2
0	19379	18.2	1
0	19433	18.25	1
0	19434	18.25	2
0	19435	18.25	1
0	19460	18.3	1
0	19461	18.3	2
0	19462	18.3	1
0	19463	18.3	1
0	19464	18.3	2
0	19465	18.3	1
0	19496	18.35	1
0	19497	18.35	2
0	19498	18.35	1
0	19546	18.4	1
0	19547	18.4	2
0	19548	18.4	1
0	19549	18.4	1
0	19550	18.4	2
0	19551	18.4	1
0	19582	18.45	1
0	19583	18.45	2
0	19584	18.45	1
0	19609	18.5	1
0	19610	18.5	2
0	19611	18.5	1
0	19612	18.5	1
0	19613	18.5	2
0	19614	18.5	1
0	19668	18.55	1
0	19669	18.55	2
0	19670	18.55	1
0	19695	18.6	1
0	19696	18.6	2
0	19697	18.6	1
0	19698	18.6	1
0	19699	18.6	2
0	19700	18.6	1
0	19731	18.65	1
0	19732	18.65	2
0	19733	18.65	1
0	19758	18.7	1
0	19759	18.7	2
0	19760	18.7	1
0	19761	18.7	1
0	19762	18.7	2
0	19763	18.7	1
0	19811	18.75	1
0	19812	18.75	2
0	19813	18.75	1
0	19861	18.8	1
0	19862	18.8	2
0	19863	18.8	1
0	19864	18.8	1
0	19865	18.8	2
0	19866	18.8	1
0	19897	18.85	1
0	19898	18.85	2
0	19899	18.85	1
0	19924	18.9	1
0	19925	18.9	2
0	19926	18.9	1
0	19927	18.9	1
0	19928	18.9	2
0	19929	18.9	1
0	19983	18.95	1
0	19984	18.95	2
0	19985	18.95	1
0	20010	19	1
0	20011	19	2
0	20012	19	1
0	20013	19	1
0	20014	19	2
0	20015	19	1
0	20046	19.05	1
0	20047	19.05	2
0	20048	19.05	1
0	20096	19.1	1
0	20097	19.1	2
0	20098	19.1	1
0	20099	19.1	1
0	20100	19.1	2
0	20101	19.1	1
0	20132	19.15	1
0	20133	19.15	2
0	20134	19.15	1
0	20159	19.2	1
0	20160	19.2	2
0	20161	19.2	1
0	20162	19.2	1
0	20163	19.2	2
0	20164	19.2	1
0	20195	19.25	1
0	20196	19.25	2
0	20197	19.25	1
0	20239	19.3	1
0	20240	19.3	2
0	20241	19.3	1
0	20242	19.3	1
0	20243	19.3	2
0	20244	19.3	1
0	20298	19.35	1
0	20299	19.35	2
0	20300	19.35	1
0	20325	19.4	1
0	20326	19.4	2
0	20327	19.4	1
0	20328	19.4	1
0	20329	19.4	2
0	20330	19.4	1
0	20361	19.45	1
0	20362	19.45	2
0	20363	19.45	1
0	20411	19.5	1
0	20412	19.5	2
0	20413	19.5	1
0	20414	19.5	1
0	20415	19.5	2
0	20416	19.5	1
0	20447	19.55	1
0	20448	19.55	2
0	20449	19.55	1
0	20474	19.6	1
0	20475	19.6	2
0	20476	19.6	1
0	20477	19.6	1
0	20478	19.6	2
0	20479	19.6	1
0	20533	19.65	1
0	20534	19.65	2
0	20535	19.65	1
0	20560	19.7	1
0	20561	19.7	2
0	20562	19.7	1
0	20563	19.7	1
0	20564	19.7	2
0	20565	19.7	1
0	20596	19.75	1
0	20597	19.75	2
0	20598	19.75	1
0	20623	19.8	1
0	20624	19.8	2
0	20625	19.8	1
0	20626	19.8	1
0	20627	19.8	2
0	20628	19.8	1
0	20682	19.85	1
0	20683	19.85	2
0	20684	19.85	1
0	20732	19.9	1
0	20733	19.9	2
0	20734	19.9	1
0	20735	19.9	1
0	20736	19.9	2
0	20737	19.9	1
0	20768	19.95	1
0	20769	19.95	2
0	20770	19.95	1
0	20795	20	1
0	20796	20	2
0	20797	20	1
0	20798	20	1
0	20799	20	2
0	20800	20	1
0	20836	20.05	1
0	20837	20.05	2
0	20838	20.05	1
0	20863	20.1	1
0	20864	20.1	2
0	20865	20.1	1
0	20866	20.1	1
0	20867	20.1	2
0	20868	20.1	1
0	20899	20.15	1
0	20900	20.15	2
0	20901	20.15	1
0	20949	20.2	1
0	20950	20.2	2
0	20951	20.2	1
0	20952	20.2	1
0	20953	20.2	2
0	20954	20.2	1
0	20985	20.25	1
0	20986	20.25	2
0	20987	20.25	1
0	21012	20.3	1
0	21013	20.3	2
0	21014	20.3	1
0	21015	20.3	1
0	21016	20.3	2
0	21017	20.3	1
0	21048	20.35	1
0	21049	20.35	2
0	21050	20.35	1
0	21098	20.4	1
0	21099	20.4	2
0	21100	20.4	1
0	21101	20.4	1
0	21102	20.4	2
0	21103	20.4	1
0	21134	20.45	1
0	21135	20.45	2
0	21136	20.45	1
0	21161	20.5	1
0	21162	20.5	2
0	21163	20.5	1
0	21164	20.5	1
0	21165	20.5	2
0	21166	20.5	1
0	21197	20.55	1
0	21198	20.55	2
0	21199	20.55	1
0	21224	20.6	1
0	21225	20.6	2
0	21226	20.6	1
0	21227	20.6	1
0	21228	20.6	2
0	21229	20.6	1
0	21260	20.65	1
0	21261	20.65	2
0	21262	20.65	1
0	21287	20.7	1
0	21288	20.7	2
0	21289	20.7	1
0	21290	20.7	1
0	21291	20.7	2
0	21292	20.7	1
0	21346	20.75	1
0	21347	20.75	2
0	21348	20.75	1
0	21373	20.8	1
0	21374	20.8	2
0	21375	20.8	1
0	21376	20.8	1
0	21377	20.8	2
0	21378	20.8	1
0	21409	20.85	1
0	21410	20.85	2
0	21411	20.85	1
0	21436	20.9	1
0	21437	20.9	2
0	21438	20.9	1
0	21439	20.9	1
0	21440	20.9	2
0	21441	20.9	1
0	21495	20.95	1
0	21496	20.95	2
0	21497	20.95	1
0	21522	21	1
0	21523	21	2
0	21524	21	1
0	21525	21	1
0	21526	21	2
0	21527	21	1
0	21558	21.05	1
0	21559	21.05	2
0	21560	21.05	1
0	21585	21.1	1
0	21586	21.1	2
0	21587	21.1	1
0	21588	21.1	1
0	21589	21.1	2
0	21590	21.1	1
0	21621	21.15	1
0	21622	21.15	2
0	21623	21.15	1
0	21648	21.2	1
0	21649	21.2	2
0	21650	21.2	1
0	21651	21.2	1
0	21652	21.2	2
0	21653	21.2	1
0	21684	21.25	1
0	21685	21.25	2
0	21686	21.25	1
0	21734	21.3	1
0	21735	21.3	2
0	21736	21.3	1
0	21737	21.3	1
0	21738	21.3	2
0	21739	21.3	1
0	21770	21.35	1
0	21771	21.35	2
0	21772	21.35	1
0	21797	21.4	1
0	21798	21.4	2
0	21799	21.4	1
0	21800	21.4	1
0	21801	21.4	2
0	21802	21.4	1
0	21833	21.45	1
0	21834	21.45	2
0	21835	21.45	1
0	21888	21.5	1
0	21889	21.5	2
0	21890	21.5	1
0	21891	21.5	1
0	21892	21.5	2
0	21893	21.5	1
0	21924	21.55	1
0	21925	21.55	2
0	21926	21.55	1
0	21951	21.6	1
0	21952	21.6	2
0	21953	21.6	1
0	21954	21.6	1
0	21955	21.6	2
0	21956	21.6	1
0	22010	21.65	1
0	22011	21.65	2
0	22012	21.65	1
0	22037	21.7	1
0	22038	21.7	2
0	22039	21.7	1
0	22040	21.7	1
0	22041	21.7	2
0	22042	21.7	1
0	22073	21.75	1
0	22074	21.75	2
0	22075	21.75	1
0	22100	21.8	1
0	22101	21.8	2
0	22102	21.8	1
0	22103	21.8	1
0	22104	21.8	2
0	22105	21.8	1
0	22159	21.85	1
0	22160	21.85	2
0	22161	21.85	1
0	22186	21.9	1
0	22187	21.9	2
0	22188	21.9	1
0	22189	21.9	1
0	22190	21.9	2
0	22191	21.9	1
0	22222	21.95	1
0	22223	21.95	2
0	22224	21.95	1
0	22252	22	1
0	22253	22	2
0	22254	22	1
0	22255	22	1
0	22256	22	2
0	22257	22	1
0	22334	22.05	1
0	22335	22.05	2
0	22336	22.05	1
0	22361	22.1	1
0	22362	22.1	2
0	22363	22.1	1
0	22364	22.1	1
0	22365	22.1	2
0	22366	22.1	1
0	22397	22.15	1
0	22398	22.15	2
0	22399	22.15	1
0	22447	22.2	1
0	22448	22.2	2
0	22449	22.2	1
0	22450	22.2	1
0	22451	22.2	2
0	22452	22.2	1
0	22483	22.25	1
0	22484	22.25	2
0	22485	22.25	1
0	22510	22.3	1
0	22511	22.3	2
0	22512	22.3	1
0	22513	22.3	1
0	22514	22.3	2
0	22515	22.3	1
0	22546	22.35	1
0	22547	22.35	2
0	22548	22.35	1
0	22596	22.4	1
0	22597	22.4	2
0	22598	22.4	1
0	22599	22.4	1
0	22600	22.4	2
0	22601	22.4	1
0	22632	22.45	1
0	22633	22.45	2
0	22634	22.45	1
0	22659	22.5	1
0	22660	22.5	2
0	22661	22.5	1
0	22662	22.5	1
0	22663	22.5	2
0	22664	22.5	1
0	22695	22.55	1
0	22696	22.55	2
0	22697	22.55	1
0	22762	22.6	1
0	22763	22.6	2
0	22764	22.6	1
0	22765	22.6	1
0	22766	22.6	2
0	22767	22.6	1
0	22798	22.65	1
0	22799	22.65	2
0	22800	22.65	1
0	22825	22.7	1
0	22826	22.7	2
0	22827	22.7	1
0	22828	22.7	1
0	22829	22.7	2
0	22830	22.7	1
0	22884	22.75	1
0	22885	22.75	2
0	22886	22.75	1
0	22911	22.8	1
0	22912	22.8	2
0	22913	22.8	1
0	22914	22.8	1
0	22915	22.8	2
0	22916	22.8	1
0	22947	22.85	1
0	22948	22.85	2
0	22949	22.85	1
0	22974	22.9	1
0	22975	22.9	2
0	22976	22.9	1
0	22977	22.9	1
0	22978	22.9	2
0	22979	22.9	1
0	23033	22.95	1
0	23034	22.95	2
0	23035	22.95	1
0	23060	23	1
0	23061	23	2
0	23062	23	1
0	23063	23	1
0	23064	23	2
0	23065	23	1
0	23096	23.05	1
0	23097	23.05	2
0	23098	23.05	1
0	23123	23.1	1
0	23124	23.1	2
0	23125	23.1	1
0	23126	23.1	1
0	23127	23.1	2
0	23128	23.1	1
0	23205	23.15	1
0	23206	23.15	2
0	23207	23.15	1
0	23232	23.2	1
0	23233	23.2	2
0	23234	23.2	1
0	23235	23.2	1
0	23236	23.2	2
0	23237	23.2	1
0	23268	23.25	1
0	23269	23.25	2
0	23270	23.25	1
0	23318	23.3	1
0	23319	23.3	2
0	23320	23.3	1
0	23321	23.3	1
0	23322	23.3	2
0	23323	23.3	1
0	23354	23.35	1
0	23355	23.35	2
0	23356	23.35	1
0	23381	23.4	1
0	23382	23.4	2
0	23383	23.4	1
0	23384	23.4	1
0	23385	23.4	2
0	23386	23.4	1
0	23417	23.45	1
0	23418	23.45	2
0	23419	23.45	1
0	23467	23.5	1
0	23468	23.5	2
0	23469	23.5	1
0	23470	23.5	1
0	23471	23.5	2
0	23472	23.5	1
0	23503	23.55	1
0	23504	23.55	2
0	23505	23.55	1
0	23530	23.6	1
0	23531	23.6	2
0	23532	23.6	1
0	23533	23.6	1
0	23534	23.6	2
0	23535	23.6	1
0	23566	23.65	1
0	23567	23.65	2
0	23568	23.65	1
0	23639	23.7	1
0	23640	23.7	2
0	23641	23.7	1
0	23642	23.7	1
0	23643	23.7	2
0	23644	23.7	1
0	23675	23.75	1
0	23676	23.75	2
0	23677	23.75	1
0	23702	23.8	1
0	23703	23.8	2
0	23704	23.8	1
0	23705	23.8	1
0	23706	23.8	2
0	23707	23.8	1
0	23761	23.85	1
0	23762	23.85	2
0	23763	23.85	1
0	23788	23.9	1
0	23789	23.9	2
0	23790	23.9	1
0	23791	23.9	1
0	23792	23.9	2
0	23793	23.9	1
0	23824	23.95	1
0	23825	23.95	2
0	23826	23.95	1
0	23851	24	1
0	23852	24	2
0	23853	24	1
0	23854	24	1
0	23855	24	2
0	23856	24	1
0	23910	24.05	1
0	23911	24.05	2
0	23912	24.05	1
0	23937	24.1	1
0	23938	24.1	2
0	23939	24.1	1
0	23940	24.1	1
0	23941	24.1	2
0	23942	24.1	1
0	23973	24.15	1
0	23974	24.15	2
0	23975	24.15	1
0	24000	24.2	1
0	24001	24.2	2
0	24002	24.2	1
0	24003	24.2	1
0	24004	24.2	2
0	24005	24.2	1
0	24082	24.25	1
0	24083	24.25	2
0	24084	24.25	1
0	24109	24.3	1
0	24110	24.3	2
0	24111	24.3	1
0	24112	24.3	1
0	24113	24.3	2
0	24114	24.3	1
0	24145	24.35	1
0	24146	24.35	2
0	24147	24.35	1
0	24195	24.4	1
0	24196	24.4	2
0	24197	24.4	1
0	24198	24.4	1
0	24199	24.4	2
0	24200	24.4	1
0	24231	24.45	1
0	24232	24.45	2
0	24233	24.45	1
0	24258	24.5	1
0	24259	24.5	2
0	24260	24.5	1
0	24261	24.5	1
0	24262	24.5	2
0	24263	24.5	1
0	24294	24.55	1
0	24295	24.55	2
0	24296	24.55	1
0	24344	24.6	1
0	24345	24.6	2
0	24346	24.6	1
0	24347	24.6	1
0	24348	24.6	2
0	24349	24.6	1
0	24380	24.65	1
0	24381	24.65	2
0	24382	24.65	1
0	24407	24.7	1
0	24408	24.7	2
0	24409	24.7	1
0	24410	24.7	1
0	24411	24.7	2
0	24412	24.7	1
0	24443	24.75	1
0	24444	24.75	2
0	24445	24.75	1
0	24510	24.8	1
0	24511	24.8	2
0	24512	24.8	1
0	24513	24.8	1
0	24514	24.8	2
0	24515	24.8	1
0	24546	24.85	1
0	24547	24.85	2
0	24548	24.85	1
0	24573	24.9	1
0	24574	24.9	2
0	24575	24.9	1
0	24576	24.9	1
0	24577	24.9	2
0	24578	24.9	1
0	24632	24.95	1
0	24633	24.95	2
0	24634	24.95	1
0	24659	25	1
0	24660	25	2
0	24661	25	1
0	24662	25	1
0	24663	25	2
0	24664	25	1
0	24695	25.05	1
0	24696	25.05	2
0	24697	25.05	1
0	24722	25.1	1
0	24723	25.1	2
0	24724	25.1	1
0	24725	25.1	1
0	24726	25.1	2
0	24727	25.1	1
0	24781	25.15	1
0	24782	25.15	2
0	24783	25.15	1
0	24808	25.2	1
0	24809	25.2	2
0	24810	25.2	1
0	24811	25.2	1
0	24812	25.2	2
0	24813	25.2	1
0	24844	25.25	1
0	24845	25.25	2
0	24846	25.25	1
0	24871	25.3	1
0	24872	25.3	2
0	24873	25.3	1
0	24874	25.3	1
0	24875	25.3	2
0	24876	25.3	1
0	24935	25.35	1
0	24936	25.35	2
0	24937	25.35	1
0	24962	25.4	1
0	24963	25.4	2
0	24964	25.4	1
0	24965	25.4	1
0	24966	25.4	2
0	24967	25.4	1
0	24998	25.45	1
0	24999	25.45	2
0	25000	25.45	1
0	25025	25.5	1
0	25026	25.5	2
0	25027	25.5	1
0	25028	25.5	1
0	25029	25.5	2
0	25030	25.5	1
0	25061	25.55	1
0	25062	25.55	2
0	25063	25.55	1
0	25088	25.6	1
0	25089	25.6	2
0	25090	25.6	1
0	25091	25.6	1
0	25092	25.6	2
0	25093	25.6	1
0	25124	25.65	1
0	25125	25.65	2
0	25126	25.65	1
0	25156	25.7	1
0	25157	25.7	2
0	25158	25.7	1
0	25159	25.7	1
0	25160	25.7	2
0	25161	25.7	1
0	25192	25.75	1
0	25193	25.75	2
0	25194	25.75	1
0	25219	25.8	1
0	25220	25.8	2
0	25221	25.8	1
0	25222	25.8	1
0	25223	25.8	2
0	25224	25.8	1
0	25255	25.85	1
0	25256	25.85	2
0	25257	25.85	1
0	25282	25.9	1
0	25283	25.9	2
0	25284	25.9	1
0	25285	25.9	1
0	25286	25.9	2
0	25287	25.9	1
0	25318	25.95	1
0	25319	25.95	2
0	25320	25.95	1
0	25345	26	1
0	25346	26	2
0	25347	26	1
0	25348	26	1
0	25349	26	2
0	25350	26	1
0	25381	26.05	1
0	25382	26.05	2
0	25383	26.05	1
0	25408	26.1	1
0	25409	26.1	2
0	25410	26.1	1
0	25411	26.1	1
0	25412	26.1	2
0	25413	26.1	1
0	25444	26.15	1
0	25445	26.15	2
0	25446	26.15	1
0	25471	26.2	1
0	25472	26.2	2
0	25473	26.2	1
0	25474	26.2	1
0	25475	26.2	2
0	25476	26.2	1
0	25507	26.25	1
0	25508	26.25	2
0	25509	26.25	1
0	25534	26.3	1
0	25535	26.3	2
0	25536	26.3	1
0	25537	26.3	1
0	25538	26.3	2
0	25539	26.3	1
0	25570	26.35	1
0	25571	26.35	2
0	25572	26.35	1
0	25597	26.4	1
0	25598	26.4	2
0	25599	26.4	1
0	25600	26.4	1
0	25601	26.4	2
0	25602	26.4	1
0	25633	26.45	1
0	25634	26.45	2
0	25635	26.45	1
0	25660	26.5	1
0	25661	26.5	2
0	25662	26.5	1
0	25663	26.5	1
0	25664	26.5	2
0	25665	26.5	1
0	25719	26.55	1
0	25720	26.55	2
0	25721	26.55	1
0	25746	26.6	1
0	25747	26.6	2
0	25748	26.6	1
0	25749	26.6	1
0	25750	26.6	2
0	25751	26.6	1
0	25782	26.65	1
0	25783	26.65	2
0	25784	26.65	1
0	25832	26.7	1
0	25833	26.7	2
0	25834	26.7	1
0	25835	26.7	1
0	25836	26.7	2
0	25837	26.7	1
0	25868	26.75	1
0	25869	26.75	2
0	25870	26.75	1
0	25895	26.8	1
0	25896	26.8	2
0	25897	26.8	1
0	25898	26.8	1
0	25899	26.8	2
0	25900	26.8	1
0	25931	26.85	1
0	25932	26.85	2
0	25933	26.85	1
0	25958	26.9	1
0	25959	26.9	2
0	25960	26.9	1
0	25961	26.9	1
0	25962	26.9	2
0	25963	26.9	1
0	26017	26.95	1
0	26018	26.95	2
0	26019	26.95	1
0	26047	27	1
0	26048	27	2
0	26049	27	1
0	26050	27	1
0	26051	27	2
0	26052	27	1
0	26083	27.05	1
0	26084	27.05	2
0	26085	27.05	1
0	26156	27.1	1
0	26157	27.1	2
0	26158	27.1	1
0	26159	27.1	1
0	26160	27.1	2
0	26161	27.1	1
0	26192	27.15	1
0	26193	27.15	2
0	26194	27.15	1
0	26219	27.2	1
0	26220	27.2	2
0	26221	27.2	1
0	26222	27.2	1
0	26223	27.2	2
0	26224	27.2	1
0	26278	27.25	1
0	26279	27.25	2
0	26280	27.25	1
0	26305	27.3	1
0	26306	27.3	2
0	26307	27.3	1
0	26308	27.3	1
0	26309	27.3	2
0	26310	27.3	1
0	26341	27.35	1
0	26342	27.35	2
0	26343	27.35	1
0	26368	27.4	1
0	26369	27.4	2
0	26370	27.4	1
0	26371	27.4	1
0	26372	27.4	2
0	26373	27.4	1
0	26404	27.45	1
0	26405	27.45	2
0	26406	27.45	1
0	26454	27.5	1
0	26455	27.5	2
0	26456	27.5	1
0	26457	27.5	1
0	26458	27.5	2
0	26459	27.5	1
0	26490	27.55	1
0	26491	27.55	2
0	26492	27.55	1
0	26517	27.6	1
0	26518	27.6	2
0	26519	27.6	1
0	26520	27.6	1
0	26521	27.6	2
0	26522	27.6	1
0	26599	27.65	1
0	26600	27.65	2
0	26601	27.65	1
0	26626	27.7	1
0	26627	27.7	2
0	26628	27.7	1
0	26629	27.7	1
0	26630	27.7	2
0	26631	27.7	1
0	26662	27.75	1
0	26663	27.75	2
0	26664	27.75	1
0	26712	27.8	1
0	26713	27.8	2
0	26714	27.8	1
0	26715	27.8	1
0	26716	27.8	2
0	26717	27.8	1
0	26748	27.85	1
0	26749	27.85	2
0	26750	27.85	1
0	26775	27.9	1
0	26776	27.9	2
0	26777	27.9	1
0	26778	27.9	1
0	26779	27.9	2
0	26780	27.9	1
0	26811	27.95	1
0	26812	27.95	2
0	26813	27.95	1
0	26838	28	1
0	26839	28	2
0	26840	28	1
0	26841	28	1
0	26842	28	2
0	26843	28	1
0	26897	28.05	1
0	26898	28.05	2
0	26899	28.05	1
0	26924	28.1	1
0	26925	28.1	2
0	26926	28.1	1
0	26927	28.1	1
0	26928	28.1	2
0	26929	28.1	1
0	26960	28.15	1
0	26961	28.15	2
0	26962	28.15	1
0	27033	28.2	1
0	27034	28.2	2
0	27035	28.2	1
0	27036	28.2	1
0	27037	28.2	2
0	27038	28.2	1
0	27069	28.25	1
0	27070	28.25	2
0	27071	28.25	1
0	27096	28.3	1
0	27097	28.3	2
0	27098	28.3	1
0	27099	28.3	1
0	27100	28.3	2
0	27101	28.3	1
0	27155	28.35	1
0	27156	28.35	2
0	27157	28.35	1
0	27182	28.4	1
0	27183	28.4	2
0	27184	28.4	1
0	27185	28.4	1
0	27186	28.4	2
0	27187	28.4	1
0	27218	28.45	1
0	27219	28.45	2
0	27220	28.45	1
0	27245	28.5	1
0	27246	28.5	2
0	27247	28.5	1
0	27248	28.5	1
0	27249	28.5	2
0	27250	28.5	1
0	27281	28.55	1
0	27282	28.55	2
0	27283	28.55	1
0	27331	28.6	1
0	27332	28.6	2
0	27333	28.6	1
0	27334	28.6	1
0	27335	28.6	2
0	27336	28.6	1
0	27367	28.65	1
0	27368	28.65	2
0	27369	28.65	1
0	27394	28.7	1
0	27395	28.7	2
0	27396	28.7	1
0	27397	28.7	1
0	27398	28.7	2
0	27399	28.7	1
0	27476	28.75	1
0	27477	28.75	2
0	27478	28.75	1
0	27503	28.8	1
0	27504	28.8	2
0	27505	28.8	1
0	27506	28.8	1
0	27507	28.8	2
0	27508	28.8	1
0	27539	28.85	1
0	27540	28.85	2
0	27541	28.85	1
0	27589	28.9	1
0	27590	28.9	2
0	27591	28.9	1
0	27592	28.9	1
0	27593	28.9	2
0	27594	28.9	1
0	27625	28.95	1
0	27626	28.95	2
0	27627	28.95	1
0	27652	29	1
0	27653	29	2
0	27654	29	1
0	27655	29	1
0	27656	29	2
0	27657	29	1
0	27688	29.05	1
0	27689	29.05	2
0	27690	29.05	1
0	27715	29.1	1
0	27716	29.1	2
0	27717	29.1	1
0	27718	29.1	1
0	27719	29.1	2
0	27720	29.1	1
0	27774	29.15	1
0	27775	29.15	2
0	27776	29.15	1
0	27801	29.2	1
0	27802	29.2	2
0	27803	29.2	1
0	27804	29.2	1
0	27805	29.2	2
0	27806	29.2	1
0	27837	29.25	1
0	27838	29.25	2
0	27839	29.25	1
0	27910	29.3	1
0	27911	29.3	2
0	27912	29.3	1
0	27913	29.3	1
0	27914	29.3	2
0	27915	29.3	1
0	27946	29.35	1
0	27947	29.35	2
0	27948	29.35	1
0	27973	29.4	1
0	27974	29.4	2
0	27975	29.4	1
0	27976	29.4	1
0	27977	29.4	2
0	27978	29.4	1
0	28032	29.45	1
0	28033	29.45	2
0	28034	29.45	1
0	28059	29.5	1
0	28060	29.5	2
0	28061	29.5	1
0	28062	29.5	1
0	28063	29.5	2
0	28064	29.5	1
0	28095	29.55	1
0	28096	29.55	2
0	28097	29.55	1
0	28122	29.6	1
0	28123	29.6	2
0	28124	29.6	1
0	28125	29.6	1
0	28126	29.6	2
0	28127	29.6	1
0	28158	29.65	1
0	28159	29.65	2
0	28160	29.65	1
0	28208	29.7	1
0	28209	29.7	2
0	28210	29.7	1
0	28211	29.7	1
0	28212	29.7	2
0	28213	29.7	1
0	28244	29.75	1
0	28245	29.75	2
0	28246	29.75	1
0	28271	29.8	1
0	28272	29.8	2
0	28273	29.8	1
0	28274	29.8	1
0	28275	29.8	2
0	28276	29.8	1
0	28335	29.85	1
0	28336	29.85	2
0	28337	29.85	1
0	28362	29.9	1
0	28363	29.9	2
0	28364	29.9	1
0	28365	29.9	1
0	28366	29.9	2
0	28367	29.9	1
0	28398	29.95	1
0	28399	29.95	2
0	28400	29.95	1
0	28448	30	1
0	28449	30	2
0	28450	30	1
0	28451	30	1
0	28452	30	2
0	28453	30	1
0	28484	30.05	1
0	28485	30.05	2
0	28486	30.05	1
0	28511	30.1	1
0	28512	30.1	2
0	28513	30.1	1
0	28514	30.1	1
0	28515	30.1	2
0	28516	30.1	1
0	28547	30.15	1
0	28548	30.15	2
0	28549	30.15	1
0	28574	30.2	1
0	28575	30.2	2
0	28576	30.2	1
0	28577	30.2	1
0	28578	30.2	2
0	28579	30.2	1
0	28610	30.25	1
0	28611	30.25	2
0	28612	30.25	1
0	28637	30.3	1
0	28638	30.3	2
0	28639	30.3	1
0	28640	30.3	1
0	28641	30.3	2
0	28642	30.3	1
0	28673	30.35	1
0	28674	30.35	2
0	28675	30.35	1
0	28723	30.4	1
0	28724	30.4	2
0	28725	30.4	1
0	28726	30.4	1
0	28727	30.4	2
0	28728	30.4	1
0	28759	30.45	1
0	28760	30.45	2
0	28761	30.45	1
0	28786	30.5	1
0	28787	30.5	2
0	28788	30.5	1
0	28789	30.5	1
0	28790	30.5	2
0	28791	30.5	1
0	28827	30.55	1
0	28828	30.55	2
0	28829	30.55	1
0	28854	30.6	1
0	28855	30.6	2
0	28856	30.6	1
0	28857	30.6	1
0	28858	30.6	2
0	28859	30.6	1
0	28890	30.65	1
0	28891	30.65	2
0	28892	30.65	1
0	28917	30.7	1
0	28918	30.7	2
0	28919	30.7	1
0	28920	30.7	1
0	28921	30.7	2
0	28922	30.7	1
0	28953	30.75	1
0	28954	30.75	2
0	28955	30.75	1
0	28980	30.8	1
0	28981	30.8	2
0	28982	30.8	1
0	28983	30.8	1
0	28984	30.8	2
0	28985	30.8	1
0	29016	30.85	1
0	29017	30.85	2
0	29018	30.85	1
0	29043	30.9	1
0	29044	30.9	2
0	29045	30.9	1
0	29046	30.9	1
0	29047	30.9	2
0	29048	30.9	1
0	29079	30.95	1
0	29080	30.95	2
0	29081	30.95	1
0	29106	31	1
0	29107	31	2
0	29108	31	1
0	29109	31	1
0	29110	31	2
0	29111	31	1
0	29142	31.05	1
0	29143	31.05	2
0	29144	31.05	1
0	29169	31.1	1
0	29170	31.1	2
0	29171	31.1	1
0	29172	31.1	1
0	29173	31.1	2
0	29174	31.1	1
0	29205	31.15	1
0	29206	31.15	2
0	29207	31.15	1
0	29232	31.2	1
0	29233	31.2	2
0	29234	31.2	1
0	29235	31.2	1
0	29236	31.2	2
0	29237	31.2	1
0	29268	31.25	1
0	29269	31.25	2
0	29270	31.25	1
0	29318	31.3	1
0	29319	31.3	2
0	29320	31.3	1
0	29321	31.3	1
0	29322	31.3	2
0	29323	31.3	1
0	29354	31.35	1
0	29355	31.35	2
0	29356	31.35	1
0	29381	31.4	1
0	29382	31.4	2
0	29383	31.4	1
0	29384	31.4	1
0	29385	31.4	2
0	29386	31.4	1
0	29440	31.45	1
0	29441	31.45	2
0	29442	31.45	1
0	29467	31.5	1
0	29468	31.5	2
0	29469	31.5	1
0	29470	31.5	1
0	29471	31.5	2
0	29472	31.5	1
0	29503	31.55	1
0	29504	31.55	2
0	29505	31.55	1
0	29530	31.6	1
0	29531	31.6	2
0	29532	31.6	1
0	29533	31.6	1
0	29534	31.6	2
0	29535	31.6	1
0	29566	31.65	1
0	29567	31.65	2
0	29568	31.65	1
0	29593	31.7	1
0	29594	31.7	2
0	29595	31.7	1
0	29596	31.7	1
0	29597	31.7	2
0	29598	31.7	1
0	29629	31.75	1
0	29630	31.75	2
0	29631	31.75	1
0	29656	31.8	1
0	29657	31.8	2
0	29658	31.8	1
0	29659	31.8	1
0	29660	31.8	2
0	29661	31.8	1
0	29715	31.85	1
0	29716	31.85	2
0	29717	31.85	1
0	29742	31.9	1
0	29743	31.9	2
0	29744	31.9	1
0	29745	31.9	1
0	29746	31.9	2
0	29747	31.9	1
0	29778	31.95	1
0	29779	31.95	2
0	29780	31.95	1
0	29830	32	1
0	29831	32	2
0	29832	32	1
0	29833	32	1
0	29834	32	2
0	29835	32	1
0	29866	32.05	1
0	29867	32.05	2
0	29868	32.05	1
0	29893	32.1	1
0	29894	32.1	2
0	29895	32.1	1
0	29896	32.1	1
0	29897	32.1	2
0	29898	32.1	1
0	29946	32.15	1
0	29947	32.15	2
0	29948	32.15	1
0	29973	32.2	1
0	29974	32.2	2
0	29975	32.2	1
0	29976	32.2	1
0	29977	32.2	2
0	29978	32.2	1
0	30009	32.25	1
0	30010	32.25	2
0	30011	32.25	1
0	30036	32.3	1
0	30037	32.3	2
0	30038	32.3	1
0	30039	32.3	1
0	30040	32.3	2
0	30041	32.3	1
0	30072	32.35	1
0	30073	32.35	2
0	30074	32.35	1
0	30099	32.4	1
0	30100	32.4	2
0	30101	32.4	1
0	30102	32.4	1
0	30103	32.4	2
0	30104	32.4	1
0	30135	32.45	1
0	30136	32.45	2
0	30137	32.45	1
0	30162	32.5	1
0	30163	32.5	2
0	30164	32.5	1
0	30165	32.5	1
0	30166	32.5	2
0	30167	32.5	1
0	30221	32.55	1
0	30222	32.55	2
0	30223	32.55	1
0	30248	32.6	1
0	30249	32.6	2
0	30250	32.6	1
0	30251	32.6	1
0	30252	32.6	2
0	30253	32.6	1
0	30284	32.65	1
0	30285	32.65	2
0	30286	32.65	1
0	30334	32.7	1
0	30335	32.7	2
0	30336	32.7	1
0	30337	32.7	1
0	30338	32.7	2
0	30339	32.7	1
0	30370	32.75	1
0	30371	32.75	2
0	30372	32.75	1
0	30397	32.8	1
0	30398	32.8	2
0	30399	32.8	1
0	30400	32.8	1
0	30401	32.8	2
0	30402	32.8	1
0	30433	32.85	1
0	30434	32.85	2
0	30435	32.85	1
0	30460	32.9	1
0	30461	32.9	2
0	30462	32.9	1
0	30463	32.9	1
0	30464	32.9	2
0	30465	32.9	1
0	30496	32.95	1
0	30497	32.95	2
0	30498	32.95	1
0	30523	33	1
0	30524	33	2
0	30525	33	1
0	30526	33	1
0	30527	33	2
0	30528	33	1
0	30559	33.05	1
0	30560	33.05	2
0	30561	33.05	1
0	30609	33.1	1
0	30610	33.1	2
0	30611	33.1	1
0	30612	33.1	1
0	30613	33.1	2
0	30614	33.1	1
0	30645	33.15	1
0	30646	33.15	2
0	30647	33.15	1
0	30672	33.2	1
0	30673	33.2	2
0	30674	33.2	1
0	30675	33.2	1
0	30676	33.2	2
0	30677	33.2	1
0	30731	33.25	1
0	30732	33.25	2
0	30733	33.25	1
0	30758	33.3	1
0	30759	33.3	2
0	30760	33.3	1
0	30761	33.3	1
0	30762	33.3	2
0	30763	33.3	1
0	30794	33.35	1
0	30795	33.35	2
0	30796	33.35	1
0	30821	33.4	1
0	30822	33.4	2
0	30823	33.4	1
0	30824	33.4	1
0	30825	33.4	2
0	30826	33.4	1
0	30880	33.45	1
0	30881	33.45	2
0	30882	33.45	1
0	30907	33.5	1
0	30908	33.5	2
0	30909	33.5	1
0	30910	33.5	1
0	30911	33.5	2
0	30912	33.5	1
0	30943	33.55	1
0	30944	33.55	2
0	30945	33.55	1
0	30993	33.6	1
0	30994	33.6	2
0	30995	33.6	1
0	30996	33.6	1
0	30997	33.6	2
0	30998	33.6	1
0	31052	33.65	1
0	31053	33.65	2
0	31054	33.65	1
0	31079	33.7	1
0	31080	33.7	2
0	31081	33.7	1
0	31082	33.7	1
0	31083	33.7	2
0	31084	33.7	1
0	31115	33.75	1
0	31116	33.75	2
0	31117	33.75	1
0	31165	33.8	1
0	31166	33.8	2
0	31167	33.8	1
0	31168	33.8	1
0	31169	33.8	2
0	31170	33.8	1
0	31201	33.85	1
0	31202	33.85	2
0	31203	33.85	1
0	31228	33.9	1
0	31229	33.9	2
0	31230	33.9	1
0	31231	33.9	1
0	31232	33.9	2
0	31233	33.9	1
0	31264	33.95	1
0	31265	33.95	2
0	31266	33.95	1
0	31314	34	1
0	31315	34	2
0	31316	34	1
0	31317	34	1
0	31318	34	2
0	31319	34	1
0	31350	34.05	1
0	31351	34.05	2
0	31352	34.05	1
0	31377	34.1	1
0	31378	34.1	2
0	31379	34.1	1
0	31380	34.1	1
0	31381	34.1	2
0	31382	34.1	1
0	31436	34.15	1
0	31437	34.15	2
0	31438	34.15	1
0	31486	34.2	1
0	31487	34.2	2
0	31488	34.2	1
0	31489	34.2	1
0	31490	34.2	2
0	31491	34.2	1
0	31522	34.25	1
0	31523	34.25	2
0	31524	34.25	1
0	31549	34.3	1
0	31550	34.3	2
0	31551	34.3	1
0	31552	34.3	1
0	31553	34.3	2
0	31554	34.3	1
0	31608	34.35	1
0	31609	34.35	2
0	31610	34.35	1
0	31635	34.4	1
0	31636	34.4	2
0	31637	34.4	1
0	31638	34.4	1
0	31639	34.4	2
0	31640	34.4	1
0	31671	34.45	1
0	31672	34.45	2
0	31673	34.45	1
0	31698	34.5	1
0	31699	34.5	2
0	31700	34.5	1
0	31701	34.5	1
0	31702	34.5	2
0	31703	34.5	1
0	31757	34.55	1
0	31758	34.55	2
0	31759	34.55	1
0	31784	34.6	1
0	31785	34.6	2
0	31786	34.6	1
0	31787	34.6	1
0	31788	34.6	2
0	31789	34.6	1
0	31820	34.65	1
0	31821	34.65	2
0	31822	34.65	1
0	31870	34.7	1
0	31871	34.7	2
0	31872	34.7	1
0	31873	34.7	1
0	31874	34.7	2
0	31875	34.7	1
0	31929	34.75	1
0	31930	34.75	2
0	31931	34.75	1
0	31956	34.8	1
0	31957	34.8	2
0	31958	34.8	1
0	31959	34.8	1
0	31960	34.8	2
0	31961	34.8	1
0	31992	34.85	1
0	31993	34.85	2
0	31994	34.85	1
0	32042	34.9	1
0	32043	34.9	2
0	32044	34.9	1
0	32045	34.9	1
0	32046	34.9	2
0	32047	34.9	1
0	32078	34.95	1
0	32079	34.95	2
0	32080	34.95	1
0	32105	35	1
0	32106	35	2
0	32107	35	1
0	32108	35	1
0	32109	35	2
0	32110	35	1
0	32141	35.05	1
0	32142	35.05	2
0	32143	35.05	1
0	32191	35.1	1
0	32192	35.1	2
0	32193	35.1	1
0	32194	35.1	1
0	32195	35.1	2
0	32196	35.1	1
0	32227	35.15	1
0	32228	35.15	2
0	32229	35.15	1
0	32254	35.2	1
0	32255	35.2	2
0	32256	35.2	1
0	32257	35.2	1
0	32258	35.2	2
0	32259	35.2	1
0	32313	35.25	1
0	32314	35.25	2
0	32315	35.25	1
0	32363	35.3	1
0	32364	35.3	2
0	32365	35.3	1
0	32366	35.3	1
0	32367	35.3	2
0	32368	35.3	1
0	32399	35.35	1
0	32400	35.35	2
0	32401	35.35	1
0	32426	35.4	1
0	32427	35.4	2
0	32428	35.4	1
0	32429	35.4	1
0	32430	35.4	2
0	32431	35.4	1
0	32485	35.45	1
0	32486	35.45	2
0	32487	35.45	1
0	32512	35.5	1
0	32513	35.5	2
0	32514	35.5	1
0	32515	35.5	1
0	32516	35.5	2
0	32517	35.5	1
0	32548	35.55	1
0	32549	35.55	2
0	32550	35.55	1
0	32575	35.6	1
0	32576	35.6	2
0	32577	35.6	1
0	32578	35.6	1
0	32579	35.6	2
0	32580	35.6	1
0	32634	35.65	1
0	32635	35.65	2
0	32636	35.65	1
0	32661	35.7	1
0	32662	35.7	2
0	32663	35.7	1
0	32664	35.7	1
0	32665	35.7	2
0	32666	35.7	1
0	32697	35.75	1
0	32698	35.75	2
0	32699	35.75	1
0	32747	35.8	1
0	32748	35.8	2
0	32749	35.8	1
0	32750	35.8	1
0	32751	35.8	2
0	32752	35.8	1
0	32806	35.85	1
0	32807	35.85	2
0	32808	35.85	1
0	32833	35.9	1
0	32834	35.9	2
0	32835	35.9	1
0	32836	35.9	1
0	32837	35.9	2
0	32838	35.9	1
0	32869	35.95	1
0	32870	35.95	2
0	32871	35.95	1
0	32919	36	1
0	32920	36	2
0	32921	36	1
0	32922	36	1
0	32923	36	2
0	32924	36	1
0	32955	36.05	1
0	32956	36.05	2
0	32957	36.05	1
0	32982	36.1	1
0	32983	36.1	2
0	32984	36.1	1
0	32985	36.1	1
0	32986	36.1	2
0	32987	36.1	1
0	33018	36.15	1
0	33019	36.15	2
0	33020	36.15	1
0	33068	36.2	1
0	33069	36.2	2
0	33070	36.2	1
0	33071	36.2	1
0	33072	36.2	2
0	33073	36.2	1
0	33104	36.25	1
0	33105	36.25	2
0	33106	36.25	1
0	33131	36.3	1
0	33132	36.3	2
0	33133	36.3	1
0	33134	36.3	1
0	33135	36.3	2
0	33136	36.3	1
0	33184	36.35	1
0	33185	36.35	2
0	33186	36.35	1
0	33234	36.4	1
0	33235	36.4	2
0	33236	36.4	1
0	33237	36.4	1
0	33238	36.4	2
0	33239	36.4	1
0	33270	36.45	1
0	33271	36.45	2
0	33272	36.45	1
0	33297	36.5	1
0	33298	36.5	2
0	33299	36.5	1
0	33300	36.5	1
0	33301	36.5	2
0	33302	36.5	1
0	33356	36.55	1
0	33357	36.55	2
0	33358	36.55	1
0	33383	36.6	1
0	33384	36.6	2
0	33385	36.6	1
0	33386	36.6	1
0	33387	36.6	2
0	33388	36.6	1
0	33419	36.65	1
0	33420	36.65	2
0	33421	36.65	1
0	33446	36.7	1
0	33447	36.7	2
0	33448	36.7	1
0	33449	36.7	1
0	33450	36.7	2
0	33451	36.7	1
0	33505	36.75	1
0	33506	36.75	2
0	33507	36.75	1
0	33532	36.8	1
0	33533	36.8	2
0	33534	36.8	1
0	33535	36.8	1
0	33536	36.8	2
0	33537	36.8	1
0	33568	36.85	1
0	33569	36.85	2
0	33570	36.85	1
0	33618	36.9	1
0	33619	36.9	2
0	33620	36.9	1
0	33621	36.9	1
0	33622	36.9	2
0	33623	36.9	1
0	33671	36.95	1
0	33672	36.95	2
0	33673	36.95	1
0	33701	37	1
0	33702	37	2
0	33703	37	1
0	33704	37	1
0	33705	37	2
0	33706	37	1
0	33737	37.05	1
0	33738	37.05	2
0	33739	37.05	1
0	33787	37.1	1
0	33788	37.1	2
0	33789	37.1	1
0	33790	37.1	1
0	33791	37.1	2
0	33792	37.1	1
0	33823	37.15	1
0	33824	37.15	2
0	33825	37.15	1
0	33850	37.2	1
0	33851	37.2	2
0	33852	37.2	1
0	33853	37.2	1
0	33854	37.2	2
0	33855	37.2	1
0	33886	37.25	1
0	33887	37.25	2
0	33888	37.25	1
0	33936	37.3	1
0	33937	37.3	2
0	33938	37.3	1
0	33939	37.3	1
0	33940	37.3	2
0	33941	37.3	1
0	33972	37.35	1
0	33973	37.35	2
0	33974	37.35	1
0	33999	37.4	1
0	34000	37.4	2
0	34001	37.4	1
0	34002	37.4	1
0	34003	37.4	2
0	34004	37.4	1
0	34058	37.45	1
0	34059	37.45	2
0	34060	37.45	1
0	34090	37.5	1
0	34091	37.5	2
0	34092	37.5	1
0	34093	37.5	1
0	34094	37.5	2
0	34095	37.5	1
0	34126	37.55	1
0	34127	37.55	2
0	34128	37.55	1
0	34153	37.6	1
0	34154	37.6	2
0	34155	37.6	1
0	34156	37.6	1
0	34157	37.6	2
0	34158	37.6	1
0	34189	37.65	1
0	34190	37.65	2
0	34191	37.65	1
0	34216	37.7	1
0	34217	37.7	2
0	34218	37.7	1
0	34219	37.7	1
0	34220	37.7	2
0	34221	37.7	1
0	34252	37.75	1
0	34253	37.75	2
0	34254	37.75	1
0	34279	37.8	1
0	34280	37.8	2
0	34281	37.8	1
0	34282	37.8	1
0	34283	37.8	2
0	34284	37.8	1
0	34338	37.85	1
0	34339	37.85	2
0	34340	37.85	1
0	34365	37.9	1
0	34366	37.9	2
0	34367	37.9	1
0	34368	37.9	1
0	34369	37.9	2
0	34370	37.9	1
0	34401	37.95	1
0	34402	37.95	2
0	34403	37.95	1
0	34451	38	1
0	34452	38	2
0	34453	38	1
0	34454	38	1
0	34455	38	2
0	34456	38	1
0	34487	38.05	1
0	34488	38.05	2
0	34489	38.05	1
0	34514	38.1	1
0	34515	38.1	2
0	34516	38.1	1
0	34517	38.1	1
0	34518	38.1	2
0	34519	38.1	1
0	34550	38.15	1
0	34551	38.15	2
0	34552	38.15	1
0	34577	38.2	1
0	34578	38.2	2
0	34579	38.2	1
0	34580	38.2	1
0	34581	38.2	2
0	34582	38.2	1
0	34613	38.25	1
0	34614	38.25	2
0	34615	38.25	1
0	34640	38.3	1
0	34641	38.3	2
0	34642	38.3	1
0	34643	38.3	1
0	34644	38.3	2
0	34645	38.3	1
0	34676	38.35	1
0	34677	38.35	2
0	34678	38.35	1
0	34708	38.4	1
0	34709	38.4	2
0	34710	38.4	1
0	34711	38.4	1
0	34712	38.4	2
0	34713	38.4	1
0	34744	38.45	1
0	34745	38.45	2
0	34746	38.45	1
0	34771	38.5	1
0	34772	38.5	2
0	34773	38.5	1
0	34774	38.5	1
0	34775	38.5	2
0	34776	38.5	1
0	34807	38.55	1
0	34808	38.55	2
0	34809	38.55	1
0	34834	38.6	1
0	34835	38.6	2
0	34836	38.6	1
0	34837	38.6	1
0	34838	38.6	2
0	34839	38.6	1
0	34870	38.65	1
0	34871	38.65	2
0	34872	38.65	1
0	34920	38.7	1
0	34921	38.7	2
0	34922	38.7	1
0	34923	38.7	1
0	34924	38.7	2
0	34925	38.7	1
0	34956	38.75	1
0	34957	38.75	2
0	34958	38.75	1
0	34983	38.8	1
0	34984	38.8	2
0	34985	38.8	1
0	34986	38.8	1
0	34987	38.8	2
0	34988	38.8	1
0	35042	38.85	1
0	35043	38.85	2
0	35044	38.85	1
0	35069	38.9	1
0	35070	38.9	2
0	35071	38.9	1
0	35072	38.9	1
0	35073	38.9	2
0	35074	38.9	1
0	35105	38.95	1
0	35106	38.95	2
0	35107	38.95	1
0	35132	39	1
0	35133	39	2
0	35134	39	1
0	35135	39	1
0	35136	39	2
0	35137	39	1
0	35168	39.05	1
0	35169	39.05	2
0	35170	39.05	1
0	35195	39.1	1
0	35196	39.1	2
0	35197	39.1	1
0	35198	39.1	1
0	35199	39.1	2
0	35200	39.1	1
0	35231	39.15	1
0	35232	39.15	2
0	35233	39.15	1
0	35258	39.2	1
0	35259	39.2	2
0	35260	39.2	1
0	35261	39.2	1
0	35262	39.2	2
0	35263	39.2	1
0	35317	39.25	1
0	35318	39.25	2
0	35319	39.25	1
0	35344	39.3	1
0	35345	39.3	2
0	35346	39.3	1
0	35347	39.3	1
0	35348	39.3	2
0	35349	39.3	1
0	35380	39.35	1
0	35381	39.35	2
0	35382	39.35	1
0	35424	39.4	1
0	35425	39.4	2
0	35426	39.4	1
0	35427	39.4	1
0	35428	39.4	2
0	35429	39.4	1
0	35460	39.45	1
0	35461	39.45	2
0	35462	39.45	1
0	35487	39.5	1
0	35488	39.5	2
0	35489	39.5	1
0	35490	39.5	1
0	35491	39.5	2
0	35492	39.5	1
0	35523	39.55	1
0	35524	39.55	2
0	35525	39.55	1
0	35567	39.6	1
0	35568	39.6	2
0	35569	39.6	1
0	35570	39.6	1
0	35571	39.6	2
0	35572	39.6	1
0	35603	39.65	1
0	35604	39.65	2
0	35605	39.65	1
0	35630	39.7	1
0	35631	39.7	2
0	35632	39.7	1
0	35633	39.7	1
0	35634	39.7	2
0	35635	39.7	1
0	35689	39.75	1
0	35690	39.75	2
0	35691	39.75	1
0	35739	39.8	1
0	35740	39.8	2
0	35741	39.8	1
0	35742	39.8	1
0	35743	39.8	2
0	35744	39.8	1
0	35775	39.85	1
0	35776	39.85	2
0	35777	39.85	1
0	35802	39.9	1
0	35803	39.9	2
0	35804	39.9	1
0	35805	39.9	1
0	35806	39.9	2
0	35807	39.9	1
0	35861	39.95	1
0	35862	39.95	2
0	35863	39.95	1
0	35888	40	1
0	35889	40	2
0	35890	40	1
0	35891	40	1
0	35892	40	2
0	35893	40	1
0	35924	40.05	1
0	35925	40.05	2
0	35926	40.05	1
0	35951	40.1	1
0	35952	40.1	2
0	35953	40.1	1
0	35954	40.1	1
0	35955	40.1	2
0	35956	40.1	1
0	36010	40.15	1
0	36011	40.15	2
0	36012	40.15	1
0	36037	40.2	1
0	36038	40.2	2
0	36039	40.2	1
0	36040	40.2	1
0	36041	40.2	2
0	36042	40.2	1
0	36073	40.25	1
0	36074	40.25	2
0	36075	40.25	1
0	36117	40.3	1
0	36118	40.3	2
0	36119	40.3	1
0	36120	40.3	1
0	36121	40.3	2
0	36122	40.3	1
0	36176	40.35	1
0	36177	40.35	2
0	36178	40.35	1
0	36203	40.4	1
0	36204	40.4	2
0	36205	40.4	1
0	36206	40.4	1
0	36207	40.4	2
0	36208	40.4	1
0	36239	40.45	1
0	36240	40.45	2
0	36241	40.45	1
0	36289	40.5	1
0	36290	40.5	2
0	36291	40.5	1
0	36292	40.5	1
0	36293	40.5	2
0	36294	40.5	1
0	36325	40.55	1
0	36326	40.55	2
0	36327	40.55	1
0	36352	40.6	1
0	36353	40.6	2
0	36354	40.6	1
0	36355	40.6	1
0	36356	40.6	2
0	36357	40.6	1
0	36388	40.65	1
0	36389	40.65	2
0	36390	40.65	1
0	36438	40.7	1
0	36439	40.7	2
0	36440	40.7	1
0	36441	40.7	1
0	36442	40.7	2
0	36443	40.7	1
0	36474	40.75	1
0	36475	40.75	2
0	36476	40.75	1
0	36501	40.8	1
0	36502	40.8	2
0	36503	40.8	1
0	36504	40.8	1
0	36505	40.8	2
0	36506	40.8	1
0	36542	40.85	1
0	36543	40.85	2
0	36544	40.85	1
0	36592	40.9	1
0	36593	40.9	2
0	36594	40.9	1
0	36595	40.9	1
0	36596	40.9	2
0	36597	40.9	1
0	36628	40.95	1
0	36629	40.95	2
0	36630	40.95	1
0	36655	41	1
0	36656	41	2
0	36657	41	1
0	36658	41	1
0	36659	41	2
0	36660	41	1
0	36714	41.05	1
0	36715	41.05	2
0	36716	41.05	1
0	36741	41.1	1
0	36742	41.1	2
0	36743	41.1	1
0	36744	41.1	1
0	36745	41.1	2
0	36746	41.1	1
0	36777	41.15	1
0	36778	41.15	2
0	36779	41.15	1
0	36804	41.2	1
0	36805	41.2	2
0	36806	41.2	1
0	36807	41.2	1
0	36808	41.2	2
0	36809	41.2	1
0	36840	41.25	1
0	36841	41.25	2
0	36842	41.25	1
0	36867	41.3	1
0	36868	41.3	2
0	36869	41.3	1
0	36870	41.3	1
0	36871	41.3	2
0	36872	41.3	1
0	36903	41.35	1
0	36904	41.35	2
0	36905	41.35	1
0	36930	41.4	1
0	36931	41.4	2
0	36932	41.4	1
0	36933	41.4	1
0	36934	41.4	2
0	36935	41.4	1
0	36989	41.45	1
0	36990	41.45	2
0	36991	41.45	1
0	37016	41.5	1
0	37017	41.5	2
0	37018	41.5	1
0	37019	41.5	1
0	37020	41.5	2
0	37021	41.5	1
0	37052	41.55	1
0	37053	41.55	2
0	37054	41.55	1
0	37102	41.6	1
0	37103	41.6	2
0	37104	41.6	1
0	37105	41.6	1
0	37106	41.6	2
0	37107	41.6	1
0	37138	41.65	1
0	37139	41.65	2
0	37140	41.65	1
0	37165	41.7	1
0	37166	41.7	2
0	37167	41.7	1
0	37168	41.7	1
0	37169	41.7	2
0	37170	41.7	1
0	37201	41.75	1
0	37202	41.75	2
0	37203	41.75	1
0	37228	41.8	1
0	37229	41.8	2
0	37230	41.8	1
0	37231	41.8	1
0	37232	41.8	2
0	37233	41.8	1
0	37264	41.85	1
0	37265	41.85	2
0	37266	41.85	1
0	37291	41.9	1
0	37292	41.9	2
0	37293	41.9	1
0	37294	41.9	1
0	37295	41.9	2
0	37296	41.9	1
0	37327	41.95	1
0	37328	41.95	2
0	37329	41.95	1
0	37380	42	1
0	37381	42	2
0	37382	42	1
0	37383	42	1
0	37384	42	2
0	37385	42	1
0	37416	42.05	1
0	37417	42.05	2
0	37418	42.05	1
0	37443	42.1	1
0	37444	42.1	2
0	37445	42.1	1
0	37446	42.1	1
0	37447	42.1	2
0	37448	42.1	1
0	37502	42.15	1
0	37503	42.15	2
0	37504	42.15	1
0	37529	42.2	1
0	37530	42.2	2
0	37531	42.2	1
0	37532	42.2	1
0	37533	42.2	2
0	37534	42.2	1
0	37565	42.25	1
0	37566	42.25	2
0	37567	42.25	1
0	37615	42.3	1
0	37616	42.3	2
0	37617	42.3	1
0	37618	42.3	1
0	37619	42.3	2
0	37620	42.3	1
0	37651	42.35	1
0	37652	42.35	2
0	37653	42.35	1
0	37678	42.4	1
0	37679	42.4	2
0	37680	42.4	1
0	37681	42.4	1
0	37682	42.4	2
0	37683	42.4	1
0	37737	42.45	1
0	37738	42.45	2
0	37739	42.45	1
0	37764	42.5	1
0	37765	42.5	2
0	37766	42.5	1
0	37767	42.5	1
0	37768	42.5	2
0	37769	42.5	1
0	37823	42.55	1
0	37824	42.55	2
0	37825	42.55	1
0	37850	42.6	1
0	37851	42.6	2
0	37852	42.6	1
0	37853	42.6	1
0	37854	42.6	2
0	37855	42.6	1
0	37886	42.65	1
0	37887	42.65	2
0	37888	42.65	1
0	37936	42.7	1
0	37937	42.7	2
0	37938	42.7	1
0	37939	42.7	1
0	37940	42.7	2
0	37941	42.7	1
0	37972	42.75	1
0	37973	42.75	2
0	37974	42.75	1
0	37999	42.8	1
0	38000	42.8	2
0	38001	42.8	1
0	38002	42.8	1
0	38003	42.8	2
0	38004	42.8	1
0	38058	42.85	1
0	38059	42.85	2
0	38060	42.85	1
0	38085	42.9	1
0	38086	42.9	2
0	38087	42.9	1
0	38088	42.9	1
0	38089	42.9	2
0	38090	42.9	1
0	38121	42.95	1
0	38122	42.95	2
0	38123	42.95	1
0	38165	43	1
0	38166	43	2
0	38167	43	1
0	38168	43	1
0	38169	43	2
0	38170	43	1
0	38201	43.05	1
0	38202	43.05	2
0	38203	43.05	1
0	38251	43.1	1
0	38252	43.1	2
0	38253	43.1	1
0	38254	43.1	1
0	38255	43.1	2
0	38256	43.1	1
0	38287	43.15	1
0	38288	43.15	2
0	38289	43.15	1
0	38314	43.2	1
0	38315	43.2	2
0	38316	43.2	1
0	38317	43.2	1
0	38318	43.2	2
0	38319	43.2	1
0	38373	43.25	1
0	38374	43.25	2
0	38375	43.25	1
0	38400	43.3	1
0	38401	43.3	2
0	38402	43.3	1
0	38403	43.3	1
0	38404	43.3	2
0	38405	43.3	1
0	38436	43.35	1
0	38437	43.35	2
0	38438	43.35	1
0	38486	43.4	1
0	38487	43.4	2
0	38488	43.4	1
0	38489	43.4	1
0	38490	43.4	2
0	38491	43.4	1
0	38522	43.45	1
0	38523	43.45	2
0	38524	43.45	1
0	38549	43.5	1
0	38550	43.5	2
0	38551	43.5	1
0	38552	43.5	1
0	38553	43.5	2
0	38554	43.5	1
0	38608	43.55	1
0	38609	43.55	2
0	38610	43.55	1
0	38635	43.6	1
0	38636	43.6	2
0	38637	43.6	1
0	38638	43.6	1
0	38639	43.6	2
0	38640	43.6	1
0	38694	43.65	1
0	38695	43.65	2
0	38696	43.65	1
0	38721	43.7	1
0	38722	43.7	2
0	38723	43.7	1
0	38724	43.7	1
0	38725	43.7	2
0	38726	43.7	1
0	38757	43.75	1
0	38758	43.75	2
0	38759	43.75	1
0	38807	43.8	1
0	38808	43.8	2
0	38809	43.8	1
0	38810	43.8	1
0	38811	43.8	2
0	38812	43.8	1
0	38843	43.85	1
0	38844	43.85	2
0	38845	43.85	1
0	38870	43.9	1
0	38871	43.9	2
0	38872	43.9	1
0	38873	43.9	1
0	38874	43.9	2
0	38875	43.9	1
0	38929	43.95	1
0	38930	43.95	2
0	38931	43.95	1
0	38956	44	1
0	38957	44	2
0	38958	44	1
0	38959	44	1
0	38960	44	2
0	38961	44	1
0	38992	44.05	1
0	38993	44.05	2
0	38994	44.05	1
0	39042	44.1	1
0	39043	44.1	2
0	39044	44.1	1
0	39045	44.1	1
0	39046	44.1	2
0	39047	44.1	1
0	39078	44.15	1
0	39079	44.15	2
0	39080	44.15	1
0	39128	44.2	1
0	39129	44.2	2
0	39130	44.2	1
0	39131	44.2	1
0	39132	44.2	2
0	39133	44.2	1
0	39164	44.25	1
0	39165	44.25	2
0	39166	44.25	1
0	39191	44.3	1
0	39192	44.3	2
0	39193	44.3	1
0	39194	44.3	1
0	39195	44.3	2
0	39196	44.3	1
0	39250	44.35	1
0	39251	44.35	2
0	39252	44.35	1
0	39277	44.4	1
0	39278	44.4	2
0	39279	44.4	1
0	39280	44.4	1
0	39281	44.4	2
0	39282	44.4	1
0	39313	44.45	1
0	39314	44.45	2
0	39315	44.45	1
0	39363	44.5	1
0	39364	44.5	2
0	39365	44.5	1
0	39366	44.5	1
0	39367	44.5	2
0	39368	44.5	1
0	39399	44.55	1
0	39400	44.55	2
0	39401	44.55	1
0	39426	44.6	1
0	39427	44.6	2
0	39428	44.6	1
0	39429	44.6	1
0	39430	44.6	2
0	39431	44.6	1
0	39485	44.65	1
0	39486	44.65	2
0	39487	44.65	1
0	39512	44.7	1
0	39513	44.7	2
0	39514	44.7	1
0	39515	44.7	1
0	39516	44.7	2
0	39517	44.7	1
0	39571	44.75	1
0	39572	44.75	2
0	39573	44.75	1
0	39598	44.8	1
0	39599	44.8	2
0	39600	44.8	1
0	39601	44.8	1
0	39602	44.8	2
0	39603	44.8	1
0	39634	44.85	1
0	39635	44.85	2
0	39636	44.85	1
0	39684	44.9	1
0	39685	44.9	2
0	39686	44.9	1
0	39687	44.9	1
0	39688	44.9	2
0	39689	44.9	1
0	39720	44.95	1
0	39721	44.95	2
0	39722	44.95	1
0	39747	45	1
0	39748	45	2
0	39749	45	1
0	39750	45	1
0	39751	45	2
0	39752	45	1
0	39806	45.05	1
0	39807	45.05	2
0	39808	45.05	1
0	39833	45.1	1
0	39834	45.1	2
0	39835	45.1	1
0	39836	45.1	1
0	39837	45.1	2
0	39838	45.1	1
0	39869	45.15	1
0	39870	45.15	2
0	39871	45.15	1
0	39919	45.2	1
0	39920	45.2	2
0	39921	45.2	1
0	39922	45.2	1
0	39923	45.2	2
0	39924	45.2	1
0	39955	45.25	1
0	39956	45.25	2
0	39957	45.25	1
0	40005	45.3	1
0	40006	45.3	2
0	40007	45.3	1
0	40008	45.3	1
0	40009	45.3	2
0	40010	45.3	1
0	40041	45.35	1
0	40042	45.35	2
0	40043	45.35	1
0	40068	45.4	1
0	40069	45.4	2
0	40070	45.4	1
0	40071	45.4	1
0	40072	45.4	2
0	40073	45.4	1
0	40127	45.45	1
0	40128	45.45	2
0	40129	45.45	1
0	40154	45.5	1
0	40155	45.5	2
0	40156	45.5	1
0	40157	45.5	1
0	40158	45.5	2
0	40159	45.5	1
0	40190	45.55	1
0	40191	45.55	2
0	40192	45.55	1
0	40240	45.6	1
0	40241	45.6	2
0	40242	45.6	1
0	40243	45.6	1
0	40244	45.6	2
0	40245	45.6	1
0	40276	45.65	1
0	40277	45.65	2
0	40278	45.65	1
0	40303	45.7	1
0	40304	45.7	2
0	40305	45.7	1
0	40306	45.7	1
0	40307	45.7	2
0	40308	45.7	1
0	40362	45.75	1
0	40363	45.75	2
0	40364	45.75	1
0	40389	45.8	1
0	40390	45.8	2
0	40391	45.8	1
0	40392	45.8	1
0	40393	45.8	2
0	40394	45.8	1
0	40448	45.85	1
0	40449	45.85	2
0	40450	45.85	1
0	40475	45.9	1
0	40476	45.9	2
0	40477	45.9	1
0	40478	45.9	1
0	40479	45.9	2
0	40480	45.9	1
0	40511	45.95	1
0	40512	45.95	2
0	40513	45.95	1
0	40561	46	1
0	40562	46	2
0	40563	46	1
0	40564	46	1
0	40565	46	2
0	40566	46	1
0	40597	46.05	1
0	40598	46.05	2
0	40599	46.05	1
0	40624	46.1	1
0	40625	46.1	2
0	40626	46.1	1
0	40627	46.1	1
0	40628	46.1	2
0	40629	46.1	1
0	40683	46.15	1
0	40684	46.15	2
0	40685	46.15	1
0	40710	46.2	1
0	40711	46.2	2
0	40712	46.2	1
0	40713	46.2	1
0	40714	46.2	2
0	40715	46.2	1
0	40746	46.25	1
0	40747	46.25	2
0	40748	46.25	1
0	40796	46.3	1
0	40797	46.3	2
0	40798	46.3	1
0	40799	46.3	1
0	40800	46.3	2
0	40801	46.3	1
0	40832	46.35	1
0	40833	46.35	2
0	40834	46.35	1
0	40882	46.4	1
0	40883	46.4	2
0	40884	46.4	1
0	40885	46.4	1
0	40886	46.4	2
0	40887	46.4	1
0	40918	46.45	1
0	40919	46.45	2
0	40920	46.45	1
0	40945	46.5	1
0	40946	46.5	2
0	40947	46.5	1
0	40948	46.5	1
0	40949	46.5	2
0	40950	46.5	1
0	41004	46.55	1
0	41005	46.55	2
0	41006	46.55	1
0	41031	46.6	1
0	41032	46.6	2
0	41033	46.6	1
0	41034	46.6	1
0	41035	46.6	2
0	41036	46.6	1
0	41067	46.65	1
0	41068	46.65	2
0	41069	46.65	1
0	41117	46.7	1
0	41118	46.7	2
0	41119	46.7	1
0	41120	46.7	1
0	41121	46.7	2
0	41122	46.7	1
0	41153	46.75	1
0	41154	46.75	2
0	41155	46.75	1
0	41180	46.8	1
0	41181	46.8	2
0	41182	46.8	1
0	41183	46.8	1
0	41184	46.8	2
0	41185	46.8	1
0	41239	46.85	1
0	41240	46.85	2
0	41241	46.85	1
0	41266	46.9	1
0	41267	46.9	2
0	41268	46.9	1
0	41269	46.9	1
0	41270	46.9	2
0	41271	46.9	1
0	41325	46.95	1
0	41326	46.95	2
0	41327	46.95	1
0	41355	47	1
0	41356	47	2
0	41357	47	1
0	41358	47	1
0	41359	47	2
0	41360	47	1
0	41391	47.05	1
0	41392	47.05	2
0	41393	47.05	1
0	41441	47.1	1
0	41442	47.1	2
0	41443	47.1	1
0	41444	47.1	1
0	41445	47.1	2
0	41446	47.1	1
0	41477	47.15	1
0	41478	47.15	2
0	41479	47.15	1
0	41504	47.2	1
0	41505	47.2	2
0	41506	47.2	1
0	41507	47.2	1
0	41508	47.2	2
0	41509	47.2	1
0	41563	47.25	1
0	41564	47.25	2
0	41565	47.25	1
0	41590	47.3	1
0	41591	47.3	2
0	41592	47.3	1
0	41593	47.3	1
0	41594	47.3	2
0	41595	47.3	1
0	41626	47.35	1
0	41627	47.35	2
0	41628	47.35	1
0	41676	47.4	1
0	41677	47.4	2
0	41678	47.4	1
0	41679	47.4	1
0	41680	47.4	2
0	41681	47.4	1
0	41712	47.45	1
0	41713	47.45	2
0	41714	47.45	1
0	41762	47.5	1
0	41763	47.5	2
0	41764	47.5	1
0	41765	47.5	1
0	41766	47.5	2
0	41767	47.5	1
0	41798	47.55	1
0	41799	47.55	2
0	41800	47.55	1
0	41825	47.6	1
0	41826	47.6	2
0	41827	47.6	1
0	41828	47.6	1
0	41829	47.6	2
0	41830	47.6	1
0	41884	47.65	1
0	41885	47.65	2
0	41886	47.65	1
0	41911	47.7	1
0	41912	47.7	2
0	41913	47.7	1
0	41914	47.7	1
0	41915	47.7	2
0	41916	47.7	1
0	41947	47.75	1
0	41948	47.75	2
0	41949	47.75	1
0	41997	47.8	1
0	41998	47.8	2
0	41999	47.8	1
0	42000	47.8	1
0	42001	47.8	2
0	42002	47.8	1
0	42033	47.85	1
0	42034	47.85	2
0	42035	47.85	1
0	42060	47.9	1
0	42061	47.9	2
0	42062	47.9	1
0	42063	47.9	1
0	42064	47.9	2
0	42065	47.9	1
0	42119	47.95	1
0	42120	47.95	2
0	42121	47.95	1
0	42146	48	1
0	42147	48	2
0	42148	48	1
0	42149	48	1
0	42150	48	2
0	42151	48	1
0	42187	48.05	1
0	42188	48.05	2
0	42189	48.05	1
0	42214	48.1	1
0	42215	48.1	2
0	42216	48.1	1
0	42217	48.1	1
0	42218	48.1	2
0	42219	48.1	1
0	42250	48.15	1
0	42251	48.15	2
0	42252	48.15	1
0	42277	48.2	1
0	42278	48.2	2
0	42279	48.2	1
0	42280	48.2	1
0	42281	48.2	2
0	42282	48.2	1
0	42313	48.25	1
0	42314	48.25	2
0	42315	48.25	1
0	42340	48.3	1
0	42341	48.3	2
0	42342	48.3	1
0	42343	48.3	1
0	42344	48.3	2
0	42345	48.3	1
0	42399	48.35	1
0	42400	48.35	2
0	42401	48.35	1
0	42426	48.4	1
0	42427	48.4	2
0	42428	48.4	1
0	42429	48.4	1
0	42430	48.4	2
0	42431	48.4	1
0	42462	48.45	1
0	42463	48.45	2
0	42464	48.45	1
0	42506	48.5	1
0	42507	48.5	2
0	42508	48.5	1
0	42509	48.5	1
0	42510	48.5	2
0	42511	48.5	1
0	42542	48.55	1
0	42543	48.55	2
0	42544	48.55	1
0	42569	48.6	1
0	42570	48.6	2
0	42571	48.6	1
0	42572	48.6	1
0	42573	48.6	2
0	42574	48.6	1
0	42605	48.65	1
0	42606	48.65	2
0	42607	48.65	1
0	42632	48.7	1
0	42633	48.7	2
0	42634	48.7	1
0	42635	48.7	1
0	42636	48.7	2
0	42637	48.7	1
0	42668	48.75	1
0	42669	48.75	2
0	42670	48.75	1
0	42695	48.8	1
0	42696	48.8	2
0	42697	48.8	1
0	42698	48.8	1
0	42699	48.8	2
0	42700	48.8	1
0	42731	48.85	1
0	42732	48.85	2
0	42733	48.85	1
0	42781	48.9	1
0	42782	48.9	2
0	42783	48.9	1
0	42784	48.9	1
0	42785	48.9	2
0	42786	48.9	1
0	42817	48.95	1
0	42818	48.95	2
0	42819	48.95	1
0	42844	49	1
0	42845	49	2
0	42846	49	1
0	42847	49	1
0	42848	49	2
0	42849	49	1
0	42903	49.05	1
0	42904	49.05	2
0	42905	49.05	1
0	42930	49.1	1
0	42931	49.1	2
0	42932	49.1	1
0	42933	49.1	1
0	42934	49.1	2
0	42935	49.1	1
0	42966	49.15	1
0	42967	49.15	2
0	42968	49.15	1
0	42993	49.2	1
0	42994	49.2	2
0	42995	49.2	1
0	42996	49.2	1
0	42997	49.2	2
0	42998	49.2	1
0	43052	49.25	1
0	43053	49.25	2
0	43054	49.25	1
0	43079	49.3	1
0	43080	49.3	2
0	43081	49.3	1
0	43082	49.3	1
0	43083	49.3	2
0	43084	49.3	1
0	43115	49.35	1
0	43116	49.35	2
0	43117	49.35	1
0	43165	49.4	1
0	43166	49.4	2
0	43167	49.4	1
0	43168	49.4	1
0	43169	49.4	2
0	43170	49.4	1
0	43224	49.45	1
0	43225	49.45	2
0	43226	49.45	1
0	43251	49.5	1
0	43252	49.5	2
0	43253	49.5	1
0	43254	49.5	1
0	43255	49.5	2
0	43256	49.5	1
0	43287	49.55	1
0	43288	49.55	2
0	43289	49.55	1
0	43337	49.6	1
0	43338	49.6	2
0	43339	49.6	1
0	43340	49.6	1
0	43341	49.6	2
0	43342	49.6	1
0	43373	49.65	1
0	43374	49.65	2
0	43375	49.65	1
0	43400	49.7	1
0	43401	49.7	2
0	43402	49.7	1
0	43403	49.7	1
0	43404	49.7	2
0	43405	49.7	1
0	43436	49.75	1
0	43437	49.75	2
0	43438	49.75	1
0	43486	49.8	1
0	43487	49.8	2
0	43488	49.8	1
0	43489	49.8	1
0	43490	49.8	2
0	43491	49.8	1
0	43522	49.85	1
0	43523	49.85	2
0	43524	49.85	1
0	43549	49.9	1
0	43550	49.9	2
0	43551	49.9	1
0	43552	49.9	1
0	43553	49.9	2
0	43554	49.9	1
0	43608	49.95	1
0	43609	49.95	2
0	43610	49.95	1
0	43658	50	1
0	43659	50	2
0	43660	50	1
0	43661	50	1
0	43662	50	2
0	43663	50	1
1	37	0.1	-nan
1	75	0.101	-nan
1	77	0.102	-nan
1	79	0.103	-nan
1	81	0.104	-nan
1	83	0.105	-nan
1	85	0.106	-nan
1	87	0.107	-nan
1	89	0.108	-nan
1	91	0.109	-nan
1	93	0.11	-nan
1	95	0.111	-nan
1	97	0.112	-nan
1	99	0.113	-nan
1	101	0.114	-nan
1	103	0.115	-nan
1	105	0.116	-nan
1	107	0.117	-nan
1	109	0.118	-nan
1	111	0.119	-nan
1	113	0.12	-nan
1	115	0.121	-nan
1	117	0.122	-nan
1	119	0.123	-nan
1	121	0.124	-nan
1	123	0.125	-nan
1	125	0.126	-nan
1	127	0.127	-nan
1	129	0.128	-nan
1	131	0.129	-nan
1	133	0.13	-nan
1	135	0.131	-nan
1	137	0.132	-nan
1	139	0.133	-nan
1	141	0.134	-nan
1	143	0.135	-nan
1	145	0.136	-nan
1	147	0.137	-nan
1	149	0.138	-nan
1	151	0.139	-nan
1	153	0.14	-nan
1	155	0.141	-nan
1	157	0.142	-nan
1	159	0.143	-nan
1	161	0.144	-nan
1	163	0.145	-nan
1	165	0.146	-nan
1	167	0.147	-nan
1	169	0.148	-nan
1	171	0.149	-nan
1	176	0.15	-nan
1	202	0.151	-nan
1	204	0.152	-nan
1	206	0.153	-nan
1	208	0.154	-nan
1	210	0.155	-nan
1	212	0.156	-nan
1	214	0.157	-nan
1	216	0.158	-nan
1	218	0.159	-nan
1	220	0.16	-nan
1	222	0.161	-nan
1	224	0.162	-nan
1	226	0.163	-nan
1	228	0.164	-nan
1	230	0.165	-nan
1	232	0.166	-nan
1	234	0.167	-nan
1	236	0.168	-nan
1	238	0.169	-nan
1	240	0.17	-nan
1	242	0.171	-nan
1	244	0.172	-nan
1	246	0.173	-nan
1	248	0.174	-nan
1	250	0.175	-nan
1	252	0.176	-nan
1	254	0.177	-nan
1	256	0.178	-nan
1	258	0.179	-nan
1	260	0.18	-nan
1	262	0.181	-nan
1	264	0.182	-nan
1	266	0.183	-nan
1	268	0.184	-nan
1	270	0.185	-nan
1	272	0.186	-nan
1	274	0.187	-nan
1	276	0.188	-nan
1	278	0.189	-nan
1	280	0.19	-nan
1	282	0.191	-nan
1	284	0.192	-nan
1	286	0.193	-nan
1	288	0.194	-nan
1	290	0.195	-nan
1	292	0.196	-nan
1	294	0.197	-nan
1	296	0.198	-nan
1	298	0.199	-nan
2	1635	1.698272534095	141
2	1689	1.712112534095	282
2	1707	1.725952534095	423
2	1725	1.739792534095	564
2	1770	1.753632534095	705
2	1788	1.767472534095	846
2	1806	1.781312534095	987
2	1824	1.795152534095	1128
2	1878	1.808992534095	1269
2	1896	1.822832534095	1410
2	1914	1.836672534095	1551
2	1959	1.850512534095	1692
2	1977	1.864352534095	1833
2	1995	1.878192534095	1974
2	2013	1.892032534095	2115
2	2070	1.919712534095	2256
2	2088	1.933552534095	2397
2	2106	1.947392534095	2538
2	2151	1.961232534095	2679
2	2169	1.975072534095	2820
2	2187	1.988912534095	2961
2	2236	2.002752534095	3102
2	2254	2.016592534095	3243
2	2272	2.030432534095	3384
2	2290	2.044272534095	3525
2	2335	2.058112534095	3666
2	2353	2.071952534095	3807
2	2374	2.099632534095	3948
2	2428	2.113472534095	4089
2	2446	2.127312534095	4230
2	2464	2.141152534095	4371
2	2509	2.154992534095	4512
2	2527	2.168832534095	4653
2	2545	2.182672534095	4794
2	2563	2.196512534095	4935
2	2625	2.210352534095	5076
2	2650	2.224192534095	5217
2	2772	2.238032534095	5358
2	2817	2.251872534095	5499
2	2827	2.253344192201	5640
2	2841	2.265712534095	5781
2	2851	2.267184192201	5922
2	2870	2.279552534095	6063
2	2880	2.281024192201	6204
2	2894	2.293392534095	6345
2	2904	2.294864192201	6486
2	2959	2.307232534095	6627
2	2969	2.308704192201	6768
2	2988	2.321072534095	6909
2	2998	2.322544192201	7050
2	3017	2.334912534095	7191
2	3027	2.336384192201	7332
2	3046	2.348752534095	7473
2	3083	2.350224192201	7614
2	3102	2.362592534095	7755
2	3112	2.364064192201	7896
2	3126	2.376432534095	8037
2	3136	2.377904192201	8178
2	3155	2.390272534095	8319
2	3165	2.391744192201	8460
2	3220	2.404112534095	8601
2	3233	2.417952534095	8742
2	3243	2.419424192201	8883
2	3262	2.431792534095	9024
2	3272	2.433264192201	9165
2	3291	2.445632534095	9306
2	3301	2.447104192201	9447
2	3347	2.459472534095	9588
2	3357	2.460944192201	9729
2	3376	2.473312534095	9870
2	3386	2.474784192201	10011
2	3405	2.487152534095	10152
2	3415	2.488624192201	10293
2	3470	2.500992534095	10434
2	3483	2.514832534095	10575
2	3493	2.516304192201	10716
2	3512	2.528672534095	10857
2	3522	2.530144192201	10998
2	3541	2.542512534095	11139
2	3551	2.543984192201	11280
2	3597	2.556352534095	11421
2	3607	2.557824192201	11562
2	3626	2.570192534095	11703
2	3636	2.571664192201	11844
2	3655	2.584032534095	11985
2	3665	2.585504192201	12126
2	3684	2.597872534095	12267
2	3694	2.599344192201	12408
2	3749	2.611712534095	12549
2	3759	2.613184192201	12690
2	3778	2.625552534095	12831
2	3788	2.627024192201	12972
2	3807	2.639392534095	13113
2	3817	2.640864192201	13254
2	3863	2.653232534095	13395
2	3873	2.654704192201	13536
2	3892	2.667072534095	13677
2	3902	2.668544192201	13818
2	3924	2.682384192201	13959
2	3943	2.694752534095	14100
2	3953	2.696224192201	14241
2	4008	2.708592534095	14382
2	4018	2.710064192201	14523
2	4037	2.722432534095	14664
2	4047	2.723904192201	14805
2	4066	2.736272534095	14946
2	4076	2.737744192201	15087
2	4126	2.750112534095	15228
2	4136	2.751584192201	15369
2	4159	2.763952534095	15510
2	4207	2.777792534095	15651
2	4252	2.791632534095	15792
2	4384	2.819312534095	15933
2	4434	2.833152534095	16074
2	4479	2.846992534095	16215
2	4528	2.860832534095	16356
2	4681	2.874672534095	16497
2	4723	2.888512534095	16638
2	4733	2.897504192201	16779
2	4788	2.902352534095	16920
2	4798	2.911344192201	17061
2	4817	2.916192534095	17202
2	4827	2.925184192201	17343
2	4846	2.930032534095	17484
2	4856	2.939024192201	17625
2	4875	2.943872534095	17766
2	4912	2.952864192201	17907
2	4931	2.957712534095	18048
2	4941	2.966704192201	18189
2	4960	2.971552534095	18330
2	4970	2.980544192201	18471
2	4984	2.985392534095	18612
2	4994	2.994384192201	18753
2	5013	2.999232534095	18894
2	5059	3.008224192201	19035
2	5078	3.013072534095	19176
2	5088	3.022064192201	19317
2	5107	3.026912534095	19458
2	5117	3.035904192201	19599
2	5139	3.049744192201	19740
2	5183	3.063584192201	19881
2	5202	3.068432534095	20022
2	5212	3.077424192201	20163
2	5273	3.105104192201	20304
2	5292	3.118944192201	20445
2	5311	3.132784192201	20586
2	5330	3.146624192201	20727
2	5376	3.160464192201	20868
2	5395	3.174304192201	21009
2	5414	3.188144192201	21150
2	5469	3.201984192201	21291
2	5488	3.215824192201	21432
2	5507	3.229664192201	21573
2	5526	3.243504192201	21714
2	5572	3.257344192201	21855
2	5591	3.271184192201	21996
2	5610	3.285024192201	22137
2	5629	3.298864192201	22278
2	5688	3.312704192201	22419
2	5710	3.326544192201	22560
2	5729	3.340384192201	22701
2	5775	3.354224192201	22842
2	5794	3.368064192201	22983
2	5813	3.381904192201	23124
2	5832	3.395744192201	23265
2	5887	3.409584192201	23406
2	5906	3.423424192201	23547
2	5920	3.437264192201	23688
2	5966	3.451104192201	23829
2	5985	3.464944192201	23970
2	6004	3.478784192201	24111
2	6023	3.492624192201	24252
2	6081	3.520304192201	24393
2	6103	3.547984192201	24534
2	6144	3.561824192201	24675
2	6299	3.628586728067	24816
2	6318	3.642426728067	24957
2	6364	3.656266728067	25098
2	6383	3.670106728067	25239
2	6402	3.683946728067	25380
2	6421	3.697786728067	25521
2	6476	3.711626728067	25662
2	6495	3.725466728067	25803
2	6514	3.739306728067	25944
2	6560	3.753146728067	26085
2	6579	3.766986728067	26226
2	6598	3.780826728067	26367
2	6617	3.794666728067	26508
2	6676	3.808506728067	26649
2	6707	3.822346728067	26790
2	6726	3.836186728067	26931
2	6774	3.850026728067	27072
2	6785	3.863866728067	27213
2	6824	3.877706728067	27354
2	6989	3.924980922039	27495
2	7007	3.938820922039	27636
2	7052	3.952660922039	27777
2	7070	3.966500922039	27918
2	7088	3.980340922039	28059
2	7106	3.994180922039	28200
2	7162	4.008020922039	28341
2	7183	4.021860922039	28482
2	7201	4.035700922039	28623
2	7249	4.063380922039	28764
2	7267	4.077220922039	28905
2	7285	4.091060922039	29046
2	7334	4.104900922039	29187
2	7352	4.118740922039	29328
2	7370	4.132580922039	29469
2	7388	4.146420922039	29610
2	7433	4.160260922039	29751
2	7451	4.174100922039	29892
2	7469	4.187940922039	30033
2	7523	4.201780922039	30174
2	7541	4.215620922039	30315
2	7557	4.243300922039	30456
2	7602	4.257140922039	30597
2	7620	4.270980922039	30738
2	7638	4.284820922039	30879
2	7656	4.298660922039	31020
2	7710	4.312500922039	31161
2	7728	4.326340922039	31302
2	7746	4.340180922039	31443
2	7795	4.354020922039	31584
2	7825	4.367860922039	31725
2	7843	4.381700922039	31866
2	7935	4.415183457905	32007
2	7953	4.429023457905	32148
2	7971	4.442863457905	32289
2	8016	4.456703457905	32430
2	8954	5.648426728067	32571
2	9000	5.662266728067	32712
2	9019	5.676106728067	32853
2	9038	5.689946728067	32994
2	9093	5.703786728067	33135
2	9115	5.731466728067	33276
2	9134	5.745306728067	33417
2	9180	5.759146728067	33558
2	9199	5.772986728067	33699
2	9218	5.786826728067	33840
2	9273	5.800666728067	33981
2	9292	5.814506728067	34122
2	9311	5.828346728067	34263
2	9330	5.842186728067	34404
2	9376	5.856026728067	34545
2	9395	5.869866728067	34686
2	9414	5.883706728067	34827
2	9433	5.897546728067	34968
2	9488	5.911386728067	35109
2	9507	5.925226728067	35250
2	9526	5.939066728067	35391
2	9572	5.952906728067	35532
2	9591	5.966746728067	35673
2	9610	5.980586728067	35814
2	9629	5.994426728067	35955
2	9691	6.008266728067	36096
2	9734	6.022106728067	36237
2	9753	6.035946728067	36378
2	9772	6.049786728067	36519
2	9818	6.063626728067	36660
2	9837	6.077466728067	36801
2	9856	6.091306728067	36942
2	9911	6.105146728067	37083
2	10023	6.198426728067	37224
3	1635	1.698272534095	141
3	1689	1.712112534095	282
3	1707	1.725952534095	423
3	1725	1.739792534095	564
3	1770	1.753632534095	705
3	1788	1.767472534095	846
3	1806	1.781312534095	987
3	1824	1.795152534095	1128
3	1878	1.808992534095	1269
3	1896	1.822832534095	1410
3	1914	1.836672534095	1551
3	1959	1.850512534095	1692
3	1977	1.864352534095	1833
3	1995	1.878192534095	1974
3	2013	1.892032534095	2115
3	2070	1.919712534095	2256
3	2088	1.933552534095	2397
3	2106	1.947392534095	2538
3	2151	1.961232534095	2679
3	2169	1.975072534095	2820
3	2187	1.988912534095	2961
3	2236	2.002752534095	3102
3	2254	2.016592534095	3243
3	2272	2.030432534095	3384
3	2290	2.044272534095	3525
3	2335	2.058112534095	3666
3	2353	2.071952534095	3807
3	2374	2.099632534095	3948
3	2428	2.113472534095	4089
3	2446	2.127312534095	4230
3	2464	2.141152534095	4371
3	2509	2.154992534095	4512
3	2527	2.168832534095	4653
3	2545	2.182672534095	4794
3	2563	2.196512534095	4935
3	2625	2.210352534095	5076
3	2650	2.224192534095	5217
3	2772	2.238032534095	5358
3	2817	2.251872534095	5499
3	2827	2.253344192201	5640
3	2841	2.265712534095	5781
3	2851	2.267184192201	5922
3	2870	2.279552534095	6063
3	2880	2.281024192201	6204
3	2894	2.293392534095	6345
3	2904	2.294864192201	6486
3	2959	2.307232534095	6627
3	2969	2.308704192201	6768
3	2988	2.321072534095	6909
3	2998	2.322544192201	7050
3	3017	2.334912534095	7191
3	3027	2.336384192201	7332
3	3046	2.348752534095	7473
3	3083	2.350224192201	7614
3	3102	2.362592534095	7755
3	3112	2.364064192201	7896
3	3126	2.376432534095	8037
3	3136	2.377904192201	8178
3	3155	2.390272534095	8319
3	3165	2.391744192201	8460
3	3220	2.404112534095	8601
3	3233	2.417952534095	8742
3	3243	2.419424192201	8883
3	3262	2.431792534095	9024
3	3272	2.433264192201	9165
3	3291	2.445632534095	9306
3	3301	2.447104192201	9447
3	3347	2.459472534095	9588
3	3357	2.460944192201	9729
3	3376	2.473312534095	9870
3	3386	2.474784192201	10011
3	3405	2.487152534095	10152
3	3415	2.488624192201	10293
3	3470	2.500992534095	10434
3	3483	2.514832534095	10575
3	3493	2.516304192201	10716
3	3512	2.528672534095	10857
3	3522	2.530144192201	10998
3	3541	2.542512534095	11139
3	3551	2.543984192201	11280
3	3597	2.556352534095	11421
3	3607	2.557824192201	11562
3	3626	2.570192534095	11703
3	3636	2.571664192201	11844
3	3655	2.584032534095	11985
3	3665	2.585504192201	12126
3	3684	2.597872534095	12267
3	3694	2.599344192201	12408
3	3749	2.611712534095	12549
3	3759	2.613184192201	12690
3	3778	2.625552534095	12831
3	3788	2.627024192201	12972
3	3807	2.639392534095	13113
3	3817	2.640864192201	13254
3	3863	2.653232534095	13395
3	3873	2.654704192201	13536
3	3892	2.667072534095	13677
3	3902	2.668544192201	13818
3	3924	2.682384192201	13959
3	3943	2.694752534095	14100
3	3953	2.696224192201	14241
3	4008	2.708592534095	14382
3	4018	2.710064192201	14523
3	4037	2.722432534095	14664
3	4047	2.723904192201	14805
3	4066	2.736272534095	14946
3	4076	2.737744192201	15087
3	4126	2.750112534095	15228
3	4136	2.751584192201	15369
3	4159	2.763952534095	15510
3	4207	2.777792534095	15651
3	4252	2.791632534095	15792
3	4384	2.819312534095	15933
3	4434	2.833152534095	16074
3	4479	2.846992534095	16215
3	4528	2.860832534095	16356
3	4681	2.874672534095	16497
3	4723	2.888512534095	16638
3	4733	2.897504192201	16779
3	4788	2.902352534095	16920
3	4798	2.911344192201	17061
3	4817	2.916192534095	17202
3	4827	2.925184192201	17343
3	4846	2.930032534095	17484
3	4856	2.939024192201	17625
3	4875	2.943872534095	17766
3	4912	2.952864192201	17907
3	4931	2.957712534095	18048
3	4941	2.966704192201	18189
3	4960	2.971552534095	18330
3	4970	2.980544192201	18471
3	4984	2.985392534095	18612
3	4994	2.994384192201	18753
3	5013	2.999232534095	18894
3	5059	3.008224192201	19035
3	5078	3.013072534095	19176
3	5088	3.022064192201	19317
3	5107	3.026912534095	19458
3	5117	3.035904192201	19599
3	5139	3.049744192201	19740
3	5183	3.063584192201	19881
3	5202	3.068432534095	20022
3	5212	3.077424192201	20163
3	5273	3.105104192201	20304
3	5292	3.118944192201	20445
3	5311	3.132784192201	20586
3	5330	3.146624192201	20727
3	5376	3.160464192201	20868
3	5395	3.174304192201	21009
3	5414	3.188144192201	21150
3	5469	3.201984192201	21291
3	5488	3.215824192201	21432
3	5507	3.229664192201	21573
3	5526	3.243504192201	21714
3	5572	3.257344192201	21855
3	5591	3.271184192201	21996
3	5610	3.285024192201	22137
3	5629	3.298864192201	22278
3	5688	3.312704192201	22419
3	5710	3.326544192201	22560
3	5729	3.340384192201	22701
3	5775	3.354224192201	22842
3	5794	3.368064192201	22983
3	5813	3.381904192201	23124
3	5832	3.395744192201	23265
3	5887	3.409584192201	23406
3	5906	3.423424192201	23547
3	5920	3.437264192201	23688
3	5966	3.451104192201	23829
3	5985	3.464944192201	23970
3	6004	3.478784192201	24111
3	6023	3.492624192201	24252
3	6081	3.520304192201	24393
3	6103	3.547984192201	24534
3	6144	3.561824192201	24675
3	6299	3.628586728067	24816
3	6318	3.642426728067	24957
3	6364	3.656266728067	25098
3	6383	3.670106728067	25239
3	6402	3.683946728067	25380
3	6421	3.697786728067	25521
3	6476	3.711626728067	25662
3	6495	3.725466728067	25803
3	6514	3.739306728067	25944
3	6560	3.753146728067	26085
3	6579	3.766986728067	26226
3	6598	3.780826728067	26367
3	6617	3.794666728067	26508
3	6676	3.808506728067	26649
3	6707	3.822346728067	26790
3	6726	3.836186728067	26931
3	6774	3.850026728067	27072
3	6785	3.863866728067	27213
3	6824	3.877706728067	27354
3	6989	3.924980922039	27495
3	7007	3.938820922039	27636
3	7052	3.952660922039	27777
3	7070	3.966500922039	27918
3	7088	3.980340922039	28059
3	7106	3.994180922039	28200
3	7162	4.008020922039	28341
3	7183	4.021860922039	28482
3	7201	4.035700922039	28623
3	7249	4.063380922039	28764
3	7267	4.077220922039	28905
3	7285	4.091060922039	29046
3	7334	4.104900922039	29187
3	7352	4.118740922039	29328
3	7370	4.132580922039	29469
3	7388	4.146420922039	29610
3	7433	4.160260922039	29751
3	7451	4.174100922039	29892
3	7469	4.187940922039	30033
3	7523	4.201780922039	30174
3	7541	4.215620922039	30315
3	7557	4.243300922039	30456
3	7602	4.257140922039	30597
3	7620	4.270980922039	30738
3	7638	4.284820922039	30879
3	7656	4.298660922039	31020
3	7710	4.312500922039	31161
3	7728	4.326340922039	31302
3	7746	4.340180922039	31443
3	7795	4.354020922039	31584
3	7825	4.367860922039	31725
3	7843	4.381700922039	31866
3	7935	4.415183457905	32007
3	7953	4.429023457905	32148
3	7971	4.442863457905	32289
3	8016	4.456703457905	32430
3	8954	5.648426728067	32571
3	9000	5.662266728067	32712
3	9019	5.676106728067	32853
3	9038	5.689946728067	32994
3	9093	5.703786728067	33135
3	9115	5.731466728067	33276
3	9134	5.745306728067	33417
3	9180	5.759146728067	33558
3	9199	5.772986728067	33699
3	9218	5.786826728067	33840
3	9273	5.800666728067	33981
3	9292	5.814506728067	34122
3	9311	5.828346728067	34263
3	9330	5.842186728067	34404
3	9376	5.856026728067	34545
3	9395	5.869866728067	34686
3	9414	5.883706728067	34827
3	9433	5.897546728067	34968
3	9488	5.911386728067	35109
3	9507	5.925226728067	35250
3	9526	5.939066728067	35391
3	9572	5.952906728067	35532
3	9591	5.966746728067	35673
3	9610	5.980586728067	35814
3	9629	5.994426728067	35955
3	9691	6.008266728067	36096
3	9734	6.022106728067	36237
3	9753	6.035946728067	36378
3	9772	6.049786728067	36519
3	9818	6.063626728067	36660
3	9837	6.077466728067	36801
3	9856	6.091306728067	36942
3	9911	6.105146728067	37083
3	10023	6.198426728067	37224

