version 2
run A2-0-20190928-17:28:20-26793
attr configname A2
attr datetime 20190928-17:28:20
attr experiment A2
attr inifile SimV2.ini
attr iterationvars ""
attr iterationvarsf ""
attr measurement ""
attr network NetworkTormV2
attr processid 26793
attr repetition 0
attr replication #0
attr resultdir results
attr runnumber 0
attr seedset 0
param **.mobility.traceFile "\"paths/A.movements\""
param **.numNodes 3
param **.wirelessIfc.wirelessRange 40m
param **.bluetoothIfc.wirelessRange 40m
param **application.destinationAddr "\"Wf:00:00:00:00:02\""
param **application.destinationBTAddr "\"Bt:00:00:00:00:02\""
param **application.nodesThatGen true
param **application.nodesGenMsg "\"0,1\""
param **application.startMultipleMsg true
param **application.numMultipleMsg 100
param **application.hopsListSize 50
param **.numNodes 2
param **.application.usedRNG 1
param **.application.dataGenerationInterval 1ms
param **.application.dataSizeInBytes 10
param **.application.ttl 999999s
param **application.destinationAddr "\"Wf:00:00:00:00:02\""
param **application.destinationBTAddr "\"Bt:00:00:00:00:02\""
param **application.nodesThatGen true
param **application.nodesGenMsg "\"0\""
param **application.startMultipleMsg true
param **application.numMultipleMsg 100
param **application.hopsListSize 50
param **.application.endGeneratingMsg 999999s
param **.routingLayer "\"RoutingLQE\""
param **.routing.maximumCacheSize 5000byte
param **.routing.maximumHopCount 25
param **.routing.useTTL false
param **.routing.waitBFsend 0.5
param **.routing.max_age 999999s
param **.routing.gateway_list "\"Wf:00:00:00:00:02;0|.\""
param **.routing.actual_gateway "\"Wf:00:00:00:00:02\""
param **.neighboring.antiEntropyInterval 500ms
param **.neighboring.maximumRandomBackoffDuration 1s
param **.neighboring.delayPerDataMsg 0.1
param **neighboring.usedRNG 2
param **.neighboring.GWAddr "\"Wf:00:00:00:00:02\""
param **.neighboring.sendWifiFirst true
param **.neighboring.maxLengthGraph 20
param **.neighboring.max_age 999999s
param **.neighboring.max_absent_time 1s
param **.wirelessIfc.wirelessRange 15m
param **.wirelessIfc.neighbourScanInterval 50ms
param **.wirelessIfc.bandwidthBitRate 100000bps
param **.wirelessIfc.wirelessHeaderSize 32byte
param **.wirelessIfc.minSSI -90
param **.wirelessIfc.limitQueueTime 400ms
param **.wirelessIfc.my_limit_rate 0bps
param **.bluetoothIfc.wirelessRange 15m
param **.bluetoothIfc.neighbourScanInterval 100ms
param **.bluetoothIfc.bandwidthBitRate 100000bps
param **.bluetoothIfc.wirelessHeaderSize 16byte
param **.bluetoothIfc.minSSI -90
param **.mobilityType "\"BonnMotionMobility\""
param **.mobility.traceFile "\"paths/Moves2.movements\""
param **.mobility.is3D false
param **.mobility.nodeId -1

vector 0 NetworkTormV2 neighbourhoodSize:vector ETV
attr source neighbourhoodSize
vector 1 NetworkTormV2 deliveryRatio:vector ETV
attr source sum(totalDataBytesReceived)/sum(totalDataBytesReceivableByAllNodes)
vector 2 NetworkTormV2 dataBytesReceivedSum:vector ETV
attr source sum(dataBytesReceived)
vector 3 NetworkTormV2 totalBytesReceivedSum:vector ETV
attr source sum(totalBytesReceived)
0	10	0.05	1
0	11	0.05	2
0	12	0.05	1
0	23	0.1	1
0	25	0.1	2
0	26	0.1	1
0	27	0.1	1
0	28	0.1	2
0	29	0.1	1
0	243	0.15	1
0	244	0.15	2
0	245	0.15	1
0	455	0.2	1
0	456	0.2	2
0	457	0.2	1
0	458	0.2	1
0	459	0.2	2
0	460	0.2	1
0	476	0.25	1
0	477	0.25	2
0	478	0.25	1
0	488	0.3	1
0	489	0.3	2
0	490	0.3	1
0	491	0.3	1
0	492	0.3	2
0	493	0.3	1
0	509	0.35	1
0	510	0.35	2
0	511	0.35	1
0	521	0.4	1
0	522	0.4	2
0	523	0.4	1
0	524	0.4	1
0	525	0.4	2
0	526	0.4	1
0	542	0.45	1
0	543	0.45	2
0	544	0.45	1
0	554	0.5	1
0	555	0.5	2
0	556	0.5	1
0	557	0.5	1
0	558	0.5	2
0	559	0.5	1
0	575	0.55	1
0	576	0.55	2
0	577	0.55	1
0	587	0.6	1
0	588	0.6	2
0	589	0.6	1
0	590	0.6	1
0	591	0.6	2
0	592	0.6	1
0	608	0.65	1
0	609	0.65	2
0	610	0.65	1
0	620	0.7	1
0	621	0.7	2
0	622	0.7	1
0	623	0.7	1
0	624	0.7	2
0	625	0.7	1
0	641	0.75	1
0	642	0.75	2
0	643	0.75	1
0	653	0.8	1
0	654	0.8	2
0	655	0.8	1
0	656	0.8	1
0	657	0.8	2
0	658	0.8	1
0	674	0.85	1
0	675	0.85	2
0	676	0.85	1
0	686	0.9	1
0	687	0.9	2
0	688	0.9	1
0	689	0.9	1
0	690	0.9	2
0	691	0.9	1
0	707	0.95	1
0	708	0.95	2
0	709	0.95	1
0	719	1	1
0	720	1	2
0	721	1	1
0	722	1	1
0	723	1	2
0	724	1	1
0	740	1.05	1
0	741	1.05	2
0	742	1.05	1
0	752	1.1	1
0	753	1.1	2
0	754	1.1	1
0	755	1.1	1
0	756	1.1	2
0	757	1.1	1
0	1039	1.15	1
0	1040	1.15	2
0	1041	1.15	1
0	1087	1.2	1
0	1088	1.2	2
0	1089	1.2	1
0	1090	1.2	1
0	1091	1.2	2
0	1092	1.2	1
0	1142	1.25	1
0	1143	1.25	2
0	1144	1.25	1
0	1194	1.3	1
0	1195	1.3	2
0	1196	1.3	1
0	1197	1.3	1
0	1198	1.3	2
0	1199	1.3	1
0	1245	1.35	1
0	1246	1.35	2
0	1247	1.35	1
0	1297	1.4	1
0	1298	1.4	2
0	1299	1.4	1
0	1300	1.4	1
0	1301	1.4	2
0	1302	1.4	1
0	1349	1.45	1
0	1350	1.45	2
0	1351	1.45	1
0	1388	1.5	1
0	1389	1.5	2
0	1390	1.5	1
0	1391	1.5	1
0	1392	1.5	2
0	1393	1.5	1
0	1449	1.55	1
0	1450	1.55	2
0	1451	1.55	1
0	1488	1.6	1
0	1489	1.6	2
0	1490	1.6	1
0	1491	1.6	1
0	1492	1.6	2
0	1493	1.6	1
0	1543	1.65	1
0	1544	1.65	2
0	1545	1.65	1
0	1614	1.7	1
0	1615	1.7	2
0	1616	1.7	1
0	1617	1.7	1
0	1618	1.7	2
0	1619	1.7	1
0	1665	1.75	1
0	1666	1.75	2
0	1667	1.75	1
0	1708	1.8	1
0	1709	1.8	2
0	1710	1.8	1
0	1711	1.8	1
0	1712	1.8	2
0	1713	1.8	1
0	1762	1.85	1
0	1763	1.85	2
0	1764	1.85	1
0	1808	1.9	1
0	1809	1.9	2
0	1810	1.9	1
0	1811	1.9	1
0	1812	1.9	2
0	1813	1.9	1
0	1866	1.95	1
0	1867	1.95	2
0	1868	1.95	1
0	1908	2	1
0	1909	2	2
0	1910	2	1
0	1911	2	1
0	1912	2	2
0	1913	2	1
0	1966	2.05	1
0	1967	2.05	2
0	1968	2.05	1
0	2014	2.1	1
0	2015	2.1	2
0	2016	2.1	1
0	2017	2.1	1
0	2018	2.1	2
0	2019	2.1	1
0	2066	2.15	1
0	2067	2.15	2
0	2068	2.15	1
0	2118	2.2	1
0	2119	2.2	2
0	2120	2.2	1
0	2121	2.2	1
0	2122	2.2	2
0	2123	2.2	1
0	2179	2.25	1
0	2180	2.25	2
0	2181	2.25	1
0	2225	2.3	1
0	2226	2.3	2
0	2227	2.3	1
0	2228	2.3	1
0	2229	2.3	2
0	2230	2.3	1
0	2286	2.35	1
0	2287	2.35	2
0	2288	2.35	1
0	2328	2.4	1
0	2329	2.4	2
0	2330	2.4	1
0	2331	2.4	1
0	2332	2.4	2
0	2333	2.4	1
0	2380	2.45	1
0	2381	2.45	2
0	2382	2.45	1
0	2428	2.5	1
0	2429	2.5	2
0	2430	2.5	1
0	2431	2.5	1
0	2432	2.5	2
0	2433	2.5	1
0	2467	2.55	1
0	2468	2.55	2
0	2469	2.55	1
0	2543	2.6	1
0	2544	2.6	2
0	2545	2.6	1
0	2546	2.6	1
0	2547	2.6	2
0	2548	2.6	1
0	2597	2.65	1
0	2598	2.65	2
0	2599	2.65	1
0	2640	2.7	1
0	2641	2.7	2
0	2642	2.7	1
0	2643	2.7	1
0	2644	2.7	2
0	2645	2.7	1
0	2910	2.75	1
0	2911	2.75	2
0	2912	2.75	1
0	2955	2.8	1
0	2956	2.8	2
0	2957	2.8	1
0	2958	2.8	1
0	2959	2.8	2
0	2960	2.8	1
0	3010	2.85	1
0	3011	2.85	2
0	3012	2.85	1
0	3085	2.9	1
0	3086	2.9	2
0	3087	2.9	1
0	3088	2.9	1
0	3089	2.9	2
0	3090	2.9	1
0	3142	2.95	1
0	3143	2.95	2
0	3144	2.95	1
0	3185	3	1
0	3186	3	2
0	3187	3	1
0	3188	3	1
0	3189	3	2
0	3190	3	1
0	3246	3.05	1
0	3247	3.05	2
0	3248	3.05	1
0	3276	3.1	1
0	3277	3.1	2
0	3278	3.1	1
0	3279	3.1	1
0	3280	3.1	2
0	3281	3.1	1
0	3325	3.15	1
0	3326	3.15	2
0	3327	3.15	1
0	3373	3.2	1
0	3374	3.2	2
0	3375	3.2	1
0	3376	3.2	1
0	3377	3.2	2
0	3378	3.2	1
0	3428	3.25	1
0	3429	3.25	2
0	3430	3.25	1
0	3496	3.3	1
0	3497	3.3	2
0	3498	3.3	1
0	3499	3.3	1
0	3500	3.3	2
0	3501	3.3	1
0	3547	3.35	1
0	3548	3.35	2
0	3549	3.35	1
0	3596	3.4	1
0	3597	3.4	2
0	3598	3.4	1
0	3599	3.4	1
0	3600	3.4	2
0	3601	3.4	1
0	3667	3.45	1
0	3668	3.45	2
0	3669	3.45	1
0	3704	3.5	1
0	3705	3.5	2
0	3706	3.5	1
0	3707	3.5	1
0	3708	3.5	2
0	3709	3.5	1
0	3756	3.55	1
0	3757	3.55	2
0	3758	3.55	1
0	3786	3.6	1
0	3787	3.6	2
0	3788	3.6	1
0	3789	3.6	1
0	3790	3.6	2
0	3791	3.6	1
0	3847	3.65	1
0	3848	3.65	2
0	3849	3.65	1
0	3899	3.7	1
0	3900	3.7	2
0	3901	3.7	1
0	3902	3.7	1
0	3903	3.7	2
0	3904	3.7	1
0	3950	3.75	1
0	3951	3.75	2
0	3952	3.75	1
0	4002	3.8	1
0	4003	3.8	2
0	4004	3.8	1
0	4005	3.8	1
0	4006	3.8	2
0	4007	3.8	1
0	4073	3.85	1
0	4074	3.85	2
0	4075	3.85	1
0	4110	3.9	1
0	4111	3.9	2
0	4112	3.9	1
0	4113	3.9	1
0	4114	3.9	2
0	4115	3.9	1
0	4171	3.95	1
0	4172	3.95	2
0	4173	3.95	1
0	4227	4	1
0	4228	4	2
0	4229	4	1
0	4230	4	1
0	4231	4	2
0	4232	4	1
0	4282	4.05	1
0	4283	4.05	2
0	4284	4.05	1
0	4327	4.1	1
0	4328	4.1	2
0	4329	4.1	1
0	4330	4.1	1
0	4331	4.1	2
0	4332	4.1	1
0	4354	4.15	1
0	4355	4.15	2
0	4356	4.15	1
0	4366	4.2	1
0	4367	4.2	2
0	4368	4.2	1
0	4369	4.2	1
0	4370	4.2	2
0	4371	4.2	1
0	4387	4.25	1
0	4388	4.25	2
0	4389	4.25	1
0	4399	4.3	1
0	4400	4.3	2
0	4401	4.3	1
0	4402	4.3	1
0	4403	4.3	2
0	4404	4.3	1
0	4420	4.35	1
0	4421	4.35	2
0	4422	4.35	1
0	4446	4.4	1
0	4447	4.4	2
0	4448	4.4	1
0	4449	4.4	1
0	4450	4.4	2
0	4451	4.4	1
0	4467	4.45	1
0	4468	4.45	2
0	4469	4.45	1
0	4493	4.5	1
0	4494	4.5	2
0	4495	4.5	1
0	4496	4.5	1
0	4497	4.5	2
0	4498	4.5	1
0	4528	4.55	1
0	4529	4.55	2
0	4530	4.55	1
0	4540	4.6	1
0	4541	4.6	2
0	4542	4.6	1
0	4543	4.6	1
0	4544	4.6	2
0	4545	4.6	1
0	4627	4.65	1
0	4628	4.65	2
0	4629	4.65	1
0	4663	4.7	1
0	4664	4.7	2
0	4665	4.7	1
0	4666	4.7	1
0	4667	4.7	2
0	4668	4.7	1
0	4718	4.75	1
0	4719	4.75	2
0	4720	4.75	1
0	4770	4.8	1
0	4771	4.8	2
0	4772	4.8	1
0	4773	4.8	1
0	4774	4.8	2
0	4775	4.8	1
0	4821	4.85	1
0	4822	4.85	2
0	4823	4.85	1
0	4833	4.9	1
0	4834	4.9	2
0	4835	4.9	1
0	4836	4.9	1
0	4837	4.9	2
0	4838	4.9	1
0	4868	4.95	1
0	4869	4.95	2
0	4870	4.95	1
0	4880	5	1
0	4881	5	2
0	4882	5	1
0	4883	5	1
0	4884	5	2
0	4885	5	1
0	4915	5.05	1
0	4916	5.05	2
0	4917	5.05	1
0	4941	5.1	1
0	4942	5.1	2
0	4943	5.1	1
0	4944	5.1	1
0	4945	5.1	2
0	4946	5.1	1
0	4962	5.15	1
0	4963	5.15	2
0	4964	5.15	1
0	5012	5.2	1
0	5013	5.2	2
0	5014	5.2	1
0	5015	5.2	1
0	5016	5.2	2
0	5017	5.2	1
0	5033	5.25	1
0	5034	5.25	2
0	5035	5.25	1
0	5045	5.3	1
0	5046	5.3	2
0	5047	5.3	1
0	5048	5.3	1
0	5049	5.3	2
0	5050	5.3	1
0	5066	5.35	1
0	5067	5.35	2
0	5068	5.35	1
0	5078	5.4	1
0	5079	5.4	2
0	5080	5.4	1
0	5081	5.4	1
0	5082	5.4	2
0	5083	5.4	1
0	5099	5.45	1
0	5100	5.45	2
0	5101	5.45	1
0	5114	5.5	1
0	5115	5.5	2
0	5116	5.5	1
0	5117	5.5	1
0	5118	5.5	2
0	5119	5.5	1
0	5135	5.55	1
0	5136	5.55	2
0	5137	5.55	1
0	5161	5.6	1
0	5162	5.6	2
0	5163	5.6	1
0	5164	5.6	1
0	5165	5.6	2
0	5166	5.6	1
0	5182	5.65	1
0	5183	5.65	2
0	5184	5.65	1
0	5194	5.7	1
0	5195	5.7	2
0	5196	5.7	1
0	5197	5.7	1
0	5198	5.7	2
0	5199	5.7	1
0	5229	5.75	1
0	5230	5.75	2
0	5231	5.75	1
0	5241	5.8	1
0	5242	5.8	2
0	5243	5.8	1
0	5244	5.8	1
0	5245	5.8	2
0	5246	5.8	1
0	5262	5.85	1
0	5263	5.85	2
0	5264	5.85	1
0	5274	5.9	1
0	5275	5.9	2
0	5276	5.9	1
0	5277	5.9	1
0	5278	5.9	2
0	5279	5.9	1
0	5295	5.95	1
0	5296	5.95	2
0	5297	5.95	1
0	5307	6	1
0	5308	6	2
0	5309	6	1
0	5310	6	1
0	5311	6	2
0	5312	6	1
0	5328	6.05	1
0	5329	6.05	2
0	5330	6.05	1
0	5340	6.1	1
0	5341	6.1	2
0	5342	6.1	1
0	5343	6.1	1
0	5344	6.1	2
0	5345	6.1	1
0	5375	6.15	1
0	5376	6.15	2
0	5377	6.15	1
0	5387	6.2	1
0	5388	6.2	2
0	5389	6.2	1
0	5390	6.2	1
0	5391	6.2	2
0	5392	6.2	1
0	5408	6.25	1
0	5409	6.25	2
0	5410	6.25	1
0	5434	6.3	1
0	5435	6.3	2
0	5436	6.3	1
0	5437	6.3	1
0	5438	6.3	2
0	5439	6.3	1
0	5455	6.35	1
0	5456	6.35	2
0	5457	6.35	1
0	5467	6.4	1
0	5468	6.4	2
0	5469	6.4	1
0	5470	6.4	1
0	5471	6.4	2
0	5472	6.4	1
0	5488	6.45	1
0	5489	6.45	2
0	5490	6.45	1
0	5500	6.5	1
0	5501	6.5	2
0	5502	6.5	1
0	5503	6.5	1
0	5504	6.5	2
0	5505	6.5	1
0	5521	6.55	1
0	5522	6.55	2
0	5523	6.55	1
0	5533	6.6	1
0	5534	6.6	2
0	5535	6.6	1
0	5536	6.6	1
0	5537	6.6	2
0	5538	6.6	1
0	5554	6.65	1
0	5555	6.65	2
0	5556	6.65	1
0	5594	6.7	1
0	5595	6.7	2
0	5596	6.7	1
0	5597	6.7	1
0	5598	6.7	2
0	5599	6.7	1
0	5615	6.75	1
0	5616	6.75	2
0	5617	6.75	1
0	5627	6.8	1
0	5628	6.8	2
0	5629	6.8	1
0	5630	6.8	1
0	5631	6.8	2
0	5632	6.8	1
0	5676	6.85	1
0	5677	6.85	2
0	5678	6.85	1
0	5688	6.9	1
0	5689	6.9	2
0	5690	6.9	1
0	5691	6.9	1
0	5692	6.9	2
0	5693	6.9	1
0	5709	6.95	1
0	5710	6.95	2
0	5711	6.95	1
0	5721	7	1
0	5722	7	2
0	5723	7	1
0	5724	7	1
0	5725	7	2
0	5726	7	1
0	5742	7.05	1
0	5743	7.05	2
0	5744	7.05	1
0	5754	7.1	1
0	5755	7.1	2
0	5756	7.1	1
0	5757	7.1	1
0	5758	7.1	2
0	5759	7.1	1
0	5775	7.15	1
0	5776	7.15	2
0	5777	7.15	1
0	5787	7.2	1
0	5788	7.2	2
0	5789	7.2	1
0	5790	7.2	1
0	5791	7.2	2
0	5792	7.2	1
0	6041	7.25	1
0	6042	7.25	2
0	6043	7.25	1
0	6093	7.3	1
0	6094	7.3	2
0	6095	7.3	1
0	6096	7.3	1
0	6097	7.3	2
0	6098	7.3	1
0	6150	7.35	1
0	6151	7.35	2
0	6152	7.35	1
0	6214	7.4	1
0	6215	7.4	2
0	6216	7.4	1
0	6217	7.4	1
0	6218	7.4	2
0	6219	7.4	1
0	6275	7.45	1
0	6276	7.45	2
0	6277	7.45	1
0	6317	7.5	1
0	6318	7.5	2
0	6319	7.5	1
0	6320	7.5	1
0	6321	7.5	2
0	6322	7.5	1
0	6378	7.55	1
0	6379	7.55	2
0	6380	7.55	1
0	6426	7.6	1
0	6427	7.6	2
0	6428	7.6	1
0	6429	7.6	1
0	6430	7.6	2
0	6431	7.6	1
0	6481	7.65	1
0	6482	7.65	2
0	6483	7.65	1
0	6533	7.7	1
0	6534	7.7	2
0	6535	7.7	1
0	6536	7.7	1
0	6537	7.7	2
0	6538	7.7	1
0	6584	7.75	1
0	6585	7.75	2
0	6586	7.75	1
0	6640	7.8	1
0	6641	7.8	2
0	6642	7.8	1
0	6643	7.8	1
0	6644	7.8	2
0	6645	7.8	1
0	6701	7.85	1
0	6702	7.85	2
0	6703	7.85	1
0	6734	7.9	1
0	6735	7.9	2
0	6736	7.9	1
0	6737	7.9	1
0	6738	7.9	2
0	6739	7.9	1
0	6795	7.95	1
0	6796	7.95	2
0	6797	7.95	1
0	6843	8	1
0	6844	8	2
0	6845	8	1
0	6846	8	1
0	6847	8	2
0	6848	8	1
0	6898	8.05	1
0	6899	8.05	2
0	6900	8.05	1
0	6941	8.1	1
0	6942	8.1	2
0	6943	8.1	1
0	6944	8.1	1
0	6945	8.1	2
0	6946	8.1	1
0	6989	8.15	1
0	6990	8.15	2
0	6991	8.15	1
0	7041	8.2	1
0	7042	8.2	2
0	7043	8.2	1
0	7044	8.2	1
0	7045	8.2	2
0	7046	8.2	1
0	7098	8.25	1
0	7099	8.25	2
0	7100	8.25	1
0	7141	8.3	1
0	7142	8.3	2
0	7143	8.3	1
0	7144	8.3	1
0	7145	8.3	2
0	7146	8.3	1
0	7202	8.35	1
0	7203	8.35	2
0	7204	8.35	1
0	7244	8.4	1
0	7245	8.4	2
0	7246	8.4	1
0	7247	8.4	1
0	7248	8.4	2
0	7249	8.4	1
0	7305	8.45	1
0	7306	8.45	2
0	7307	8.45	1
0	7353	8.5	1
0	7354	8.5	2
0	7355	8.5	1
0	7356	8.5	1
0	7357	8.5	2
0	7358	8.5	1
0	7408	8.55	1
0	7409	8.55	2
0	7410	8.55	1
0	7460	8.6	1
0	7461	8.6	2
0	7462	8.6	1
0	7463	8.6	1
0	7464	8.6	2
0	7465	8.6	1
0	7513	8.65	1
0	7514	8.65	2
0	7515	8.65	1
0	7527	8.7	1
0	7528	8.7	2
0	7529	8.7	1
0	7530	8.7	1
0	7531	8.7	2
0	7532	8.7	1
0	7548	8.75	1
0	7549	8.75	2
0	7550	8.75	1
0	7560	8.8	1
0	7561	8.8	2
0	7562	8.8	1
0	7563	8.8	1
0	7564	8.8	2
0	7565	8.8	1
0	7581	8.85	1
0	7582	8.85	2
0	7583	8.85	1
0	7593	8.9	1
0	7594	8.9	2
0	7595	8.9	1
0	7596	8.9	1
0	7597	8.9	2
0	7598	8.9	1
0	7642	8.95	1
0	7643	8.95	2
0	7644	8.95	1
0	7654	9	1
0	7655	9	2
0	7656	9	1
0	7657	9	1
0	7658	9	2
0	7659	9	1
0	7675	9.05	1
0	7676	9.05	2
0	7677	9.05	1
0	7735	9.1	1
0	7736	9.1	2
0	7737	9.1	1
0	7738	9.1	1
0	7739	9.1	2
0	7740	9.1	1
0	7796	9.15	1
0	7797	9.15	2
0	7798	9.15	1
0	7808	9.2	1
0	7809	9.2	2
0	7810	9.2	1
0	7811	9.2	1
0	7812	9.2	2
0	7813	9.2	1
0	7829	9.25	1
0	7830	9.25	2
0	7831	9.25	1
0	7841	9.3	1
0	7842	9.3	2
0	7843	9.3	1
0	7844	9.3	1
0	7845	9.3	2
0	7846	9.3	1
0	7862	9.35	1
0	7863	9.35	2
0	7864	9.35	1
0	7874	9.4	1
0	7875	9.4	2
0	7876	9.4	1
0	7877	9.4	1
0	7878	9.4	2
0	7879	9.4	1
0	7895	9.45	1
0	7896	9.45	2
0	7897	9.45	1
0	7935	9.5	1
0	7936	9.5	2
0	7937	9.5	1
0	7938	9.5	1
0	7939	9.5	2
0	7940	9.5	1
0	7956	9.55	1
0	7957	9.55	2
0	7958	9.55	1
0	7968	9.6	1
0	7969	9.6	2
0	7970	9.6	1
0	7971	9.6	1
0	7972	9.6	2
0	7973	9.6	1
0	8017	9.65	1
0	8018	9.65	2
0	8019	9.65	1
0	8029	9.7	1
0	8030	9.7	2
0	8031	9.7	1
0	8032	9.7	1
0	8033	9.7	2
0	8034	9.7	1
0	8050	9.75	1
0	8051	9.75	2
0	8052	9.75	1
0	8062	9.8	1
0	8063	9.8	2
0	8064	9.8	1
0	8065	9.8	1
0	8066	9.8	2
0	8067	9.8	1
0	8083	9.85	1
0	8084	9.85	2
0	8085	9.85	1
0	8095	9.9	1
0	8096	9.9	2
0	8097	9.9	1
0	8098	9.9	1
0	8099	9.9	2
0	8100	9.9	1
0	8116	9.95	1
0	8117	9.95	2
0	8118	9.95	1
0	8128	10	1
0	8129	10	2
0	8130	10	1
0	8131	10	1
0	8132	10	2
0	8133	10	1
0	8166	10.05	1
0	8167	10.05	2
0	8168	10.05	1
0	8178	10.1	1
0	8179	10.1	2
0	8180	10.1	1
0	8181	10.1	1
0	8182	10.1	2
0	8183	10.1	1
0	8199	10.15	1
0	8200	10.15	2
0	8201	10.15	1
0	8225	10.2	1
0	8226	10.2	2
0	8227	10.2	1
0	8228	10.2	1
0	8229	10.2	2
0	8230	10.2	1
0	8246	10.25	1
0	8247	10.25	2
0	8248	10.25	1
0	8258	10.3	1
0	8259	10.3	2
0	8260	10.3	1
0	8261	10.3	1
0	8262	10.3	2
0	8263	10.3	1
0	8279	10.35	1
0	8280	10.35	2
0	8281	10.35	1
0	8291	10.4	1
0	8292	10.4	2
0	8293	10.4	1
0	8294	10.4	1
0	8295	10.4	2
0	8296	10.4	1
0	8312	10.45	1
0	8313	10.45	2
0	8314	10.45	1
0	8324	10.5	1
0	8325	10.5	2
0	8326	10.5	1
0	8327	10.5	1
0	8328	10.5	2
0	8329	10.5	1
0	8345	10.55	1
0	8346	10.55	2
0	8347	10.55	1
0	8371	10.6	1
0	8372	10.6	2
0	8373	10.6	1
0	8374	10.6	1
0	8375	10.6	2
0	8376	10.6	1
0	8392	10.65	1
0	8393	10.65	2
0	8394	10.65	1
0	8404	10.7	1
0	8405	10.7	2
0	8406	10.7	1
0	8407	10.7	1
0	8408	10.7	2
0	8409	10.7	1
0	8439	10.75	1
0	8440	10.75	2
0	8441	10.75	1
0	8451	10.8	1
0	8452	10.8	2
0	8453	10.8	1
0	8454	10.8	1
0	8455	10.8	2
0	8456	10.8	1
0	8472	10.85	1
0	8473	10.85	2
0	8474	10.85	1
0	8484	10.9	1
0	8485	10.9	2
0	8486	10.9	1
0	8487	10.9	1
0	8488	10.9	2
0	8489	10.9	1
0	8505	10.95	1
0	8506	10.95	2
0	8507	10.95	1
0	8517	11	1
0	8518	11	2
0	8519	11	1
0	8520	11	1
0	8521	11	2
0	8522	11	1
0	8538	11.05	1
0	8539	11.05	2
0	8540	11.05	1
0	8550	11.1	1
0	8551	11.1	2
0	8552	11.1	1
0	8553	11.1	1
0	8554	11.1	2
0	8555	11.1	1
0	8574	11.15	1
0	8575	11.15	2
0	8576	11.15	1
0	8586	11.2	1
0	8587	11.2	2
0	8588	11.2	1
0	8589	11.2	1
0	8590	11.2	2
0	8591	11.2	1
0	8621	11.25	1
0	8622	11.25	2
0	8623	11.25	1
0	8633	11.3	1
0	8634	11.3	2
0	8635	11.3	1
0	8636	11.3	1
0	8637	11.3	2
0	8638	11.3	1
0	8654	11.35	1
0	8655	11.35	2
0	8656	11.35	1
0	8680	11.4	1
0	8681	11.4	2
0	8682	11.4	1
0	8683	11.4	1
0	8684	11.4	2
0	8685	11.4	1
0	8701	11.45	1
0	8702	11.45	2
0	8703	11.45	1
0	8713	11.5	1
0	8714	11.5	2
0	8715	11.5	1
0	8716	11.5	1
0	8717	11.5	2
0	8718	11.5	1
0	8734	11.55	1
0	8735	11.55	2
0	8736	11.55	1
0	8746	11.6	1
0	8747	11.6	2
0	8748	11.6	1
0	8749	11.6	1
0	8750	11.6	2
0	8751	11.6	1
0	8767	11.65	1
0	8768	11.65	2
0	8769	11.65	1
0	8779	11.7	1
0	8780	11.7	2
0	8781	11.7	1
0	8782	11.7	1
0	8783	11.7	2
0	8784	11.7	1
0	8800	11.75	1
0	8801	11.75	2
0	8802	11.75	1
0	8826	11.8	1
0	8827	11.8	2
0	8828	11.8	1
0	8829	11.8	1
0	8830	11.8	2
0	8831	11.8	1
0	8847	11.85	1
0	8848	11.85	2
0	8849	11.85	1
0	8859	11.9	1
0	8860	11.9	2
0	8861	11.9	1
0	8862	11.9	1
0	8863	11.9	2
0	8864	11.9	1
0	8894	11.95	1
0	8895	11.95	2
0	8896	11.95	1
0	8906	12	1
0	8907	12	2
0	8908	12	1
0	8909	12	1
0	8910	12	2
0	8911	12	1
0	8927	12.05	1
0	8928	12.05	2
0	8929	12.05	1
0	8939	12.1	1
0	8940	12.1	2
0	8941	12.1	1
0	8942	12.1	1
0	8943	12.1	2
0	8944	12.1	1
0	8960	12.15	1
0	8961	12.15	2
0	8962	12.15	1
0	8972	12.2	1
0	8973	12.2	2
0	8974	12.2	1
0	8975	12.2	1
0	8976	12.2	2
0	8977	12.2	1
0	8993	12.25	1
0	8994	12.25	2
0	8995	12.25	1
0	9005	12.3	1
0	9006	12.3	2
0	9007	12.3	1
0	9008	12.3	1
0	9009	12.3	2
0	9010	12.3	1
0	9043	12.35	1
0	9044	12.35	2
0	9045	12.35	1
0	9055	12.4	1
0	9056	12.4	2
0	9057	12.4	1
0	9058	12.4	1
0	9059	12.4	2
0	9060	12.4	1
0	9076	12.45	1
0	9077	12.45	2
0	9078	12.45	1
0	9102	12.5	1
0	9103	12.5	2
0	9104	12.5	1
0	9105	12.5	1
0	9106	12.5	2
0	9107	12.5	1
0	9123	12.55	1
0	9124	12.55	2
0	9125	12.55	1
0	9135	12.6	1
0	9136	12.6	2
0	9137	12.6	1
0	9138	12.6	1
0	9139	12.6	2
0	9140	12.6	1
0	9156	12.65	1
0	9157	12.65	2
0	9158	12.65	1
0	9168	12.7	1
0	9169	12.7	2
0	9170	12.7	1
0	9171	12.7	1
0	9172	12.7	2
0	9173	12.7	1
0	9189	12.75	1
0	9190	12.75	2
0	9191	12.75	1
0	9201	12.8	1
0	9202	12.8	2
0	9203	12.8	1
0	9204	12.8	1
0	9205	12.8	2
0	9206	12.8	1
0	9222	12.85	1
0	9223	12.85	2
0	9224	12.85	1
0	9248	12.9	1
0	9249	12.9	2
0	9250	12.9	1
0	9251	12.9	1
0	9252	12.9	2
0	9253	12.9	1
0	9269	12.95	1
0	9270	12.95	2
0	9271	12.95	1
0	9281	13	1
0	9282	13	2
0	9283	13	1
0	9284	13	1
0	9285	13	2
0	9286	13	1
0	9316	13.05	1
0	9317	13.05	2
0	9318	13.05	1
0	9328	13.1	1
0	9329	13.1	2
0	9330	13.1	1
0	9331	13.1	1
0	9332	13.1	2
0	9333	13.1	1
0	9349	13.15	1
0	9350	13.15	2
0	9351	13.15	1
0	9361	13.2	1
0	9362	13.2	2
0	9363	13.2	1
0	9364	13.2	1
0	9365	13.2	2
0	9366	13.2	1
0	9382	13.25	1
0	9383	13.25	2
0	9384	13.25	1
0	9394	13.3	1
0	9395	13.3	2
0	9396	13.3	1
0	9397	13.3	1
0	9398	13.3	2
0	9399	13.3	1
0	9415	13.35	1
0	9416	13.35	2
0	9417	13.35	1
0	9427	13.4	1
0	9428	13.4	2
0	9429	13.4	1
0	9430	13.4	1
0	9431	13.4	2
0	9432	13.4	1
0	9462	13.45	1
0	9463	13.45	2
0	9464	13.45	1
0	9474	13.5	1
0	9475	13.5	2
0	9476	13.5	1
0	9477	13.5	1
0	9478	13.5	2
0	9479	13.5	1
0	9509	13.55	1
0	9510	13.55	2
0	9511	13.55	1
0	9524	13.6	1
0	9525	13.6	2
0	9526	13.6	1
0	9527	13.6	1
0	9528	13.6	2
0	9529	13.6	1
0	9545	13.65	1
0	9546	13.65	2
0	9547	13.65	1
0	9571	13.7	1
0	9572	13.7	2
0	9573	13.7	1
0	9574	13.7	1
0	9575	13.7	2
0	9576	13.7	1
0	9592	13.75	1
0	9593	13.75	2
0	9594	13.75	1
0	9604	13.8	1
0	9605	13.8	2
0	9606	13.8	1
0	9607	13.8	1
0	9608	13.8	2
0	9609	13.8	1
0	9625	13.85	1
0	9626	13.85	2
0	9627	13.85	1
0	9637	13.9	1
0	9638	13.9	2
0	9639	13.9	1
0	9640	13.9	1
0	9641	13.9	2
0	9642	13.9	1
0	9658	13.95	1
0	9659	13.95	2
0	9660	13.95	1
0	9670	14	1
0	9671	14	2
0	9672	14	1
0	9673	14	1
0	9674	14	2
0	9675	14	1
0	9691	14.05	1
0	9692	14.05	2
0	9693	14.05	1
0	9717	14.1	1
0	9718	14.1	2
0	9719	14.1	1
0	9720	14.1	1
0	9721	14.1	2
0	9722	14.1	1
0	9738	14.15	1
0	9739	14.15	2
0	9740	14.15	1
0	9750	14.2	1
0	9751	14.2	2
0	9752	14.2	1
0	9753	14.2	1
0	9754	14.2	2
0	9755	14.2	1
0	9785	14.25	1
0	9786	14.25	2
0	9787	14.25	1
0	9797	14.3	1
0	9798	14.3	2
0	9799	14.3	1
0	9800	14.3	1
0	9801	14.3	2
0	9802	14.3	1
0	9818	14.35	1
0	9819	14.35	2
0	9820	14.35	1
0	9830	14.4	1
0	9831	14.4	2
0	9832	14.4	1
0	9833	14.4	1
0	9834	14.4	2
0	9835	14.4	1
0	9851	14.45	1
0	9852	14.45	2
0	9853	14.45	1
0	9863	14.5	1
0	9864	14.5	2
0	9865	14.5	1
0	9866	14.5	1
0	9867	14.5	2
0	9868	14.5	1
0	9884	14.55	1
0	9885	14.55	2
0	9886	14.55	1
0	9896	14.6	1
0	9897	14.6	2
0	9898	14.6	1
0	9899	14.6	1
0	9900	14.6	2
0	9901	14.6	1
0	9931	14.65	1
0	9932	14.65	2
0	9933	14.65	1
0	9943	14.7	1
0	9944	14.7	2
0	9945	14.7	1
0	9946	14.7	1
0	9947	14.7	2
0	9948	14.7	1
0	9964	14.75	1
0	9965	14.75	2
0	9966	14.75	1
0	9990	14.8	1
0	9991	14.8	2
0	9992	14.8	1
0	9993	14.8	1
0	9994	14.8	2
0	9995	14.8	1
0	10011	14.85	1
0	10012	14.85	2
0	10013	14.85	1
0	10023	14.9	1
0	10024	14.9	2
0	10025	14.9	1
0	10026	14.9	1
0	10027	14.9	2
0	10028	14.9	1
0	10044	14.95	1
0	10045	14.95	2
0	10046	14.95	1
0	10056	15	1
0	10057	15	2
0	10058	15	1
0	10059	15	1
0	10060	15	2
0	10061	15	1
0	10091	15.05	1
0	10092	15.05	2
0	10093	15.05	1
0	10103	15.1	1
0	10104	15.1	2
0	10105	15.1	1
0	10106	15.1	1
0	10107	15.1	2
0	10108	15.1	1
0	10124	15.15	1
0	10125	15.15	2
0	10126	15.15	1
0	10164	15.2	1
0	10165	15.2	2
0	10166	15.2	1
0	10167	15.2	1
0	10168	15.2	2
0	10169	15.2	1
0	10185	15.25	1
0	10186	15.25	2
0	10187	15.25	1
0	10197	15.3	1
0	10198	15.3	2
0	10199	15.3	1
0	10200	15.3	1
0	10201	15.3	2
0	10202	15.3	1
0	10228	15.35	1
0	10229	15.35	2
0	10230	15.35	1
0	10240	15.4	1
0	10241	15.4	2
0	10242	15.4	1
0	10243	15.4	1
0	10244	15.4	2
0	10245	15.4	1
0	10261	15.45	1
0	10262	15.45	2
0	10263	15.45	1
0	10273	15.5	1
0	10274	15.5	2
0	10275	15.5	1
0	10276	15.5	1
0	10277	15.5	2
0	10278	15.5	1
0	10294	15.55	1
0	10295	15.55	2
0	10296	15.55	1
0	10320	15.6	1
0	10321	15.6	2
0	10322	15.6	1
0	10323	15.6	1
0	10324	15.6	2
0	10325	15.6	1
0	10341	15.65	1
0	10342	15.65	2
0	10343	15.65	1
0	10353	15.7	1
0	10354	15.7	2
0	10355	15.7	1
0	10356	15.7	1
0	10357	15.7	2
0	10358	15.7	1
0	10402	15.75	1
0	10403	15.75	2
0	10404	15.75	1
0	10414	15.8	1
0	10415	15.8	2
0	10416	15.8	1
0	10417	15.8	1
0	10418	15.8	2
0	10419	15.8	1
0	10435	15.85	1
0	10436	15.85	2
0	10437	15.85	1
0	10461	15.9	1
0	10462	15.9	2
0	10463	15.9	1
0	10464	15.9	1
0	10465	15.9	2
0	10466	15.9	1
0	10482	15.95	1
0	10483	15.95	2
0	10484	15.95	1
0	10494	16	1
0	10495	16	2
0	10496	16	1
0	10497	16	1
0	10498	16	2
0	10499	16	1
0	10515	16.05	1
0	10516	16.05	2
0	10517	16.05	1
0	10541	16.1	1
0	10542	16.1	2
0	10543	16.1	1
0	10544	16.1	1
0	10545	16.1	2
0	10546	16.1	1
0	10562	16.15	1
0	10563	16.15	2
0	10564	16.15	1
0	10574	16.2	1
0	10575	16.2	2
0	10576	16.2	1
0	10577	16.2	1
0	10578	16.2	2
0	10579	16.2	1
0	10595	16.25	1
0	10596	16.25	2
0	10597	16.25	1
0	10635	16.3	1
0	10636	16.3	2
0	10637	16.3	1
0	10638	16.3	1
0	10639	16.3	2
0	10640	16.3	1
0	10656	16.35	1
0	10657	16.35	2
0	10658	16.35	1
0	10668	16.4	1
0	10669	16.4	2
0	10670	16.4	1
0	10671	16.4	1
0	10672	16.4	2
0	10673	16.4	1
0	10703	16.45	1
0	10704	16.45	2
0	10705	16.45	1
0	10715	16.5	1
0	10716	16.5	2
0	10717	16.5	1
0	10718	16.5	1
0	10719	16.5	2
0	10720	16.5	1
0	10736	16.55	1
0	10737	16.55	2
0	10738	16.55	1
0	10748	16.6	1
0	10749	16.6	2
0	10750	16.6	1
0	10751	16.6	1
0	10752	16.6	2
0	10753	16.6	1
0	10783	16.65	1
0	10784	16.65	2
0	10785	16.65	1
0	10795	16.7	1
0	10796	16.7	2
0	10797	16.7	1
0	10798	16.7	1
0	10799	16.7	2
0	10800	16.7	1
0	10816	16.75	1
0	10817	16.75	2
0	10818	16.75	1
0	10828	16.8	1
0	10829	16.8	2
0	10830	16.8	1
0	10831	16.8	1
0	10832	16.8	2
0	10833	16.8	1
0	10877	16.85	1
0	10878	16.85	2
0	10879	16.85	1
0	10889	16.9	1
0	10890	16.9	2
0	10891	16.9	1
0	10892	16.9	1
0	10893	16.9	2
0	10894	16.9	1
0	10910	16.95	1
0	10911	16.95	2
0	10912	16.95	1
0	10936	17	1
0	10937	17	2
0	10938	17	1
0	10939	17	1
0	10940	17	2
0	10941	17	1
0	10957	17.05	1
0	10958	17.05	2
0	10959	17.05	1
0	10969	17.1	1
0	10970	17.1	2
0	10971	17.1	1
0	10972	17.1	1
0	10973	17.1	2
0	10974	17.1	1
0	10990	17.15	1
0	10991	17.15	2
0	10992	17.15	1
0	11016	17.2	1
0	11017	17.2	2
0	11018	17.2	1
0	11019	17.2	1
0	11020	17.2	2
0	11021	17.2	1
0	11037	17.25	1
0	11038	17.25	2
0	11039	17.25	1
0	11049	17.3	1
0	11050	17.3	2
0	11051	17.3	1
0	11052	17.3	1
0	11053	17.3	2
0	11054	17.3	1
0	11070	17.35	1
0	11071	17.35	2
0	11072	17.35	1
0	11110	17.4	1
0	11111	17.4	2
0	11112	17.4	1
0	11113	17.4	1
0	11114	17.4	2
0	11115	17.4	1
0	11131	17.45	1
0	11132	17.45	2
0	11133	17.45	1
0	11143	17.5	1
0	11144	17.5	2
0	11145	17.5	1
0	11146	17.5	1
0	11147	17.5	2
0	11148	17.5	1
0	11174	17.55	1
0	11175	17.55	2
0	11176	17.55	1
0	11186	17.6	1
0	11187	17.6	2
0	11188	17.6	1
0	11189	17.6	1
0	11190	17.6	2
0	11191	17.6	1
0	11207	17.65	1
0	11208	17.65	2
0	11209	17.65	1
0	11219	17.7	1
0	11220	17.7	2
0	11221	17.7	1
0	11222	17.7	1
0	11223	17.7	2
0	11224	17.7	1
0	11254	17.75	1
0	11255	17.75	2
0	11256	17.75	1
0	11266	17.8	1
0	11267	17.8	2
0	11268	17.8	1
0	11269	17.8	1
0	11270	17.8	2
0	11271	17.8	1
0	11287	17.85	1
0	11288	17.85	2
0	11289	17.85	1
0	11299	17.9	1
0	11300	17.9	2
0	11301	17.9	1
0	11302	17.9	1
0	11303	17.9	2
0	11304	17.9	1
0	11344	17.95	1
0	11345	17.95	2
0	11346	17.95	1
0	11356	18	1
0	11357	18	2
0	11358	18	1
0	11359	18	1
0	11360	18	2
0	11361	18	1
0	11377	18.05	1
0	11378	18.05	2
0	11379	18.05	1
0	11399	18.1	1
0	11400	18.1	2
0	11401	18.1	1
0	11402	18.1	1
0	11403	18.1	2
0	11404	18.1	1
0	11420	18.15	1
0	11421	18.15	2
0	11422	18.15	1
0	11432	18.2	1
0	11433	18.2	2
0	11434	18.2	1
0	11435	18.2	1
0	11436	18.2	2
0	11437	18.2	1
0	11453	18.25	1
0	11454	18.25	2
0	11455	18.25	1
0	11479	18.3	1
0	11480	18.3	2
0	11481	18.3	1
0	11482	18.3	1
0	11483	18.3	2
0	11484	18.3	1
0	11500	18.35	1
0	11501	18.35	2
0	11502	18.35	1
0	11512	18.4	1
0	11513	18.4	2
0	11514	18.4	1
0	11515	18.4	1
0	11516	18.4	2
0	11517	18.4	1
0	11533	18.45	1
0	11534	18.45	2
0	11535	18.45	1
0	11573	18.5	1
0	11574	18.5	2
0	11575	18.5	1
0	11576	18.5	1
0	11577	18.5	2
0	11578	18.5	1
0	11594	18.55	1
0	11595	18.55	2
0	11596	18.55	1
0	11606	18.6	1
0	11607	18.6	2
0	11608	18.6	1
0	11609	18.6	1
0	11610	18.6	2
0	11611	18.6	1
0	11641	18.65	1
0	11642	18.65	2
0	11643	18.65	1
0	11653	18.7	1
0	11654	18.7	2
0	11655	18.7	1
0	11656	18.7	1
0	11657	18.7	2
0	11658	18.7	1
0	11674	18.75	1
0	11675	18.75	2
0	11676	18.75	1
0	11686	18.8	1
0	11687	18.8	2
0	11688	18.8	1
0	11689	18.8	1
0	11690	18.8	2
0	11691	18.8	1
0	11721	18.85	1
0	11722	18.85	2
0	11723	18.85	1
0	11733	18.9	1
0	11734	18.9	2
0	11735	18.9	1
0	11736	18.9	1
0	11737	18.9	2
0	11738	18.9	1
0	11754	18.95	1
0	11755	18.95	2
0	11756	18.95	1
0	11766	19	1
0	11767	19	2
0	11768	19	1
0	11769	19	1
0	11770	19	2
0	11771	19	1
0	11815	19.05	1
0	11816	19.05	2
0	11817	19.05	1
0	11827	19.1	1
0	11828	19.1	2
0	11829	19.1	1
0	11830	19.1	1
0	11831	19.1	2
0	11832	19.1	1
0	11848	19.15	1
0	11849	19.15	2
0	11850	19.15	1
0	11874	19.2	1
0	11875	19.2	2
0	11876	19.2	1
0	11877	19.2	1
0	11878	19.2	2
0	11879	19.2	1
0	11895	19.25	1
0	11896	19.25	2
0	11897	19.25	1
0	11907	19.3	1
0	11908	19.3	2
0	11909	19.3	1
0	11910	19.3	1
0	11911	19.3	2
0	11912	19.3	1
0	11928	19.35	1
0	11929	19.35	2
0	11930	19.35	1
0	11954	19.4	1
0	11955	19.4	2
0	11956	19.4	1
0	11957	19.4	1
0	11958	19.4	2
0	11959	19.4	1
0	11975	19.45	1
0	11976	19.45	2
0	11977	19.45	1
0	11987	19.5	1
0	11988	19.5	2
0	11989	19.5	1
0	11990	19.5	1
0	11991	19.5	2
0	11992	19.5	1
0	12008	19.55	1
0	12009	19.55	2
0	12010	19.55	1
0	12048	19.6	1
0	12049	19.6	2
0	12050	19.6	1
0	12051	19.6	1
0	12052	19.6	2
0	12053	19.6	1
0	12069	19.65	1
0	12070	19.65	2
0	12071	19.65	1
0	12081	19.7	1
0	12082	19.7	2
0	12083	19.7	1
0	12084	19.7	1
0	12085	19.7	2
0	12086	19.7	1
0	12116	19.75	1
0	12117	19.75	2
0	12118	19.75	1
0	12128	19.8	1
0	12129	19.8	2
0	12130	19.8	1
0	12131	19.8	1
0	12132	19.8	2
0	12133	19.8	1
0	12149	19.85	1
0	12150	19.85	2
0	12151	19.85	1
0	12161	19.9	1
0	12162	19.9	2
0	12163	19.9	1
0	12164	19.9	1
0	12165	19.9	2
0	12166	19.9	1
0	12196	19.95	1
0	12197	19.95	2
0	12198	19.95	1
0	12208	20	1
0	12209	20	2
0	12210	20	1
0	12211	20	1
0	12212	20	2
0	12213	20	1
0	12229	20.05	1
0	12230	20.05	2
0	12231	20.05	1
0	12241	20.1	1
0	12242	20.1	2
0	12243	20.1	1
0	12244	20.1	1
0	12245	20.1	2
0	12246	20.1	1
0	12290	20.15	1
0	12291	20.15	2
0	12292	20.15	1
0	12302	20.2	1
0	12303	20.2	2
0	12304	20.2	1
0	12305	20.2	1
0	12306	20.2	2
0	12307	20.2	1
0	12323	20.25	1
0	12324	20.25	2
0	12325	20.25	1
0	12349	20.3	1
0	12350	20.3	2
0	12351	20.3	1
0	12352	20.3	1
0	12353	20.3	2
0	12354	20.3	1
0	12370	20.35	1
0	12371	20.35	2
0	12372	20.35	1
0	12382	20.4	1
0	12383	20.4	2
0	12384	20.4	1
0	12385	20.4	1
0	12386	20.4	2
0	12387	20.4	1
0	12403	20.45	1
0	12404	20.45	2
0	12405	20.45	1
0	12429	20.5	1
0	12430	20.5	2
0	12431	20.5	1
0	12432	20.5	1
0	12433	20.5	2
0	12434	20.5	1
0	12450	20.55	1
0	12451	20.55	2
0	12452	20.55	1
0	12462	20.6	1
0	12463	20.6	2
0	12464	20.6	1
0	12465	20.6	1
0	12466	20.6	2
0	12467	20.6	1
0	12483	20.65	1
0	12484	20.65	2
0	12485	20.65	1
0	12523	20.7	1
0	12524	20.7	2
0	12525	20.7	1
0	12526	20.7	1
0	12527	20.7	2
0	12528	20.7	1
0	12544	20.75	1
0	12545	20.75	2
0	12546	20.75	1
0	12556	20.8	1
0	12557	20.8	2
0	12558	20.8	1
0	12559	20.8	1
0	12560	20.8	2
0	12561	20.8	1
0	12591	20.85	1
0	12592	20.85	2
0	12593	20.85	1
0	12603	20.9	1
0	12604	20.9	2
0	12605	20.9	1
0	12606	20.9	1
0	12607	20.9	2
0	12608	20.9	1
0	12624	20.95	1
0	12625	20.95	2
0	12626	20.95	1
0	12636	21	1
0	12637	21	2
0	12638	21	1
0	12639	21	1
0	12640	21	2
0	12641	21	1
0	12671	21.05	1
0	12672	21.05	2
0	12673	21.05	1
0	12683	21.1	1
0	12684	21.1	2
0	12685	21.1	1
0	12686	21.1	1
0	12687	21.1	2
0	12688	21.1	1
0	12704	21.15	1
0	12705	21.15	2
0	12706	21.15	1
0	12716	21.2	1
0	12717	21.2	2
0	12718	21.2	1
0	12719	21.2	1
0	12720	21.2	2
0	12721	21.2	1
0	12765	21.25	1
0	12766	21.25	2
0	12767	21.25	1
0	12777	21.3	1
0	12778	21.3	2
0	12779	21.3	1
0	12780	21.3	1
0	12781	21.3	2
0	12782	21.3	1
0	12798	21.35	1
0	12799	21.35	2
0	12800	21.35	1
0	12820	21.4	1
0	12821	21.4	2
0	12822	21.4	1
0	12823	21.4	1
0	12824	21.4	2
0	12825	21.4	1
0	12841	21.45	1
0	12842	21.45	2
0	12843	21.45	1
0	12853	21.5	1
0	12854	21.5	2
0	12855	21.5	1
0	12856	21.5	1
0	12857	21.5	2
0	12858	21.5	1
0	12874	21.55	1
0	12875	21.55	2
0	12876	21.55	1
0	12900	21.6	1
0	12901	21.6	2
0	12902	21.6	1
0	12903	21.6	1
0	12904	21.6	2
0	12905	21.6	1
0	12921	21.65	1
0	12922	21.65	2
0	12923	21.65	1
0	12933	21.7	1
0	12934	21.7	2
0	12935	21.7	1
0	12936	21.7	1
0	12937	21.7	2
0	12938	21.7	1
0	12954	21.75	1
0	12955	21.75	2
0	12956	21.75	1
0	12990	21.8	1
0	12991	21.8	2
0	12992	21.8	1
0	12993	21.8	1
0	12994	21.8	2
0	12995	21.8	1
0	13011	21.85	1
0	13012	21.85	2
0	13013	21.85	1
0	13023	21.9	1
0	13024	21.9	2
0	13025	21.9	1
0	13026	21.9	1
0	13027	21.9	2
0	13028	21.9	1
0	13058	21.95	1
0	13059	21.95	2
0	13060	21.95	1
0	13070	22	1
0	13071	22	2
0	13072	22	1
0	13073	22	1
0	13074	22	2
0	13075	22	1
0	13091	22.05	1
0	13092	22.05	2
0	13093	22.05	1
0	13103	22.1	1
0	13104	22.1	2
0	13105	22.1	1
0	13106	22.1	1
0	13107	22.1	2
0	13108	22.1	1
0	13138	22.15	1
0	13139	22.15	2
0	13140	22.15	1
0	13150	22.2	1
0	13151	22.2	2
0	13152	22.2	1
0	13153	22.2	1
0	13154	22.2	2
0	13155	22.2	1
0	13171	22.25	1
0	13172	22.25	2
0	13173	22.25	1
0	13183	22.3	1
0	13184	22.3	2
0	13185	22.3	1
0	13186	22.3	1
0	13187	22.3	2
0	13188	22.3	1
0	13228	22.35	1
0	13229	22.35	2
0	13230	22.35	1
0	13240	22.4	1
0	13241	22.4	2
0	13242	22.4	1
0	13243	22.4	1
0	13244	22.4	2
0	13245	22.4	1
0	13261	22.45	1
0	13262	22.45	2
0	13263	22.45	1
0	13276	22.5	1
0	13277	22.5	2
0	13278	22.5	1
0	13279	22.5	1
0	13280	22.5	2
0	13281	22.5	1
0	13297	22.55	1
0	13298	22.55	2
0	13299	22.55	1
0	13309	22.6	1
0	13310	22.6	2
0	13311	22.6	1
0	13312	22.6	1
0	13313	22.6	2
0	13314	22.6	1
0	13330	22.65	1
0	13331	22.65	2
0	13332	22.65	1
0	13352	22.7	1
0	13353	22.7	2
0	13354	22.7	1
0	13355	22.7	1
0	13356	22.7	2
0	13357	22.7	1
0	13373	22.75	1
0	13374	22.75	2
0	13375	22.75	1
0	13385	22.8	1
0	13386	22.8	2
0	13387	22.8	1
0	13388	22.8	1
0	13389	22.8	2
0	13390	22.8	1
0	13406	22.85	1
0	13407	22.85	2
0	13408	22.85	1
0	13432	22.9	1
0	13433	22.9	2
0	13434	22.9	1
0	13435	22.9	1
0	13436	22.9	2
0	13437	22.9	1
0	13453	22.95	1
0	13454	22.95	2
0	13455	22.95	1
0	13465	23	1
0	13466	23	2
0	13467	23	1
0	13468	23	1
0	13469	23	2
0	13470	23	1
0	13486	23.05	1
0	13487	23.05	2
0	13488	23.05	1
0	13498	23.1	1
0	13499	23.1	2
0	13500	23.1	1
0	13501	23.1	1
0	13502	23.1	2
0	13503	23.1	1
0	13519	23.15	1
0	13520	23.15	2
0	13521	23.15	1
0	13531	23.2	1
0	13532	23.2	2
0	13533	23.2	1
0	13534	23.2	1
0	13535	23.2	2
0	13536	23.2	1
0	13566	23.25	1
0	13567	23.25	2
0	13568	23.25	1
0	13578	23.3	1
0	13579	23.3	2
0	13580	23.3	1
0	13581	23.3	1
0	13582	23.3	2
0	13583	23.3	1
0	13599	23.35	1
0	13600	23.35	2
0	13601	23.35	1
0	13611	23.4	1
0	13612	23.4	2
0	13613	23.4	1
0	13614	23.4	1
0	13615	23.4	2
0	13616	23.4	1
0	13646	23.45	1
0	13647	23.45	2
0	13648	23.45	1
0	13658	23.5	1
0	13659	23.5	2
0	13660	23.5	1
0	13661	23.5	1
0	13662	23.5	2
0	13663	23.5	1
0	13679	23.55	1
0	13680	23.55	2
0	13681	23.55	1
0	13691	23.6	1
0	13692	23.6	2
0	13693	23.6	1
0	13694	23.6	1
0	13695	23.6	2
0	13696	23.6	1
0	13712	23.65	1
0	13713	23.65	2
0	13714	23.65	1
0	13724	23.7	1
0	13725	23.7	2
0	13726	23.7	1
0	13727	23.7	1
0	13728	23.7	2
0	13729	23.7	1
0	13745	23.75	1
0	13746	23.75	2
0	13747	23.75	1
0	13771	23.8	1
0	13772	23.8	2
0	13773	23.8	1
0	13774	23.8	1
0	13775	23.8	2
0	13776	23.8	1
0	13792	23.85	1
0	13793	23.85	2
0	13794	23.85	1
0	13804	23.9	1
0	13805	23.9	2
0	13806	23.9	1
0	13807	23.9	1
0	13808	23.9	2
0	13809	23.9	1
0	13839	23.95	1
0	13840	23.95	2
0	13841	23.95	1
0	13865	24	1
0	13866	24	2
0	13867	24	1
0	13868	24	1
0	13869	24	2
0	13870	24	1
0	13886	24.05	1
0	13887	24.05	2
0	13888	24.05	1
0	13912	24.1	1
0	13913	24.1	2
0	13914	24.1	1
0	13915	24.1	1
0	13916	24.1	2
0	13917	24.1	1
0	13933	24.15	1
0	13934	24.15	2
0	13935	24.15	1
0	13945	24.2	1
0	13946	24.2	2
0	13947	24.2	1
0	13948	24.2	1
0	13949	24.2	2
0	13950	24.2	1
0	13966	24.25	1
0	13967	24.25	2
0	13968	24.25	1
0	13978	24.3	1
0	13979	24.3	2
0	13980	24.3	1
0	13981	24.3	1
0	13982	24.3	2
0	13983	24.3	1
0	14013	24.35	1
0	14014	24.35	2
0	14015	24.35	1
0	14025	24.4	1
0	14026	24.4	2
0	14027	24.4	1
0	14028	24.4	1
0	14029	24.4	2
0	14030	24.4	1
0	14046	24.45	1
0	14047	24.45	2
0	14048	24.45	1
0	14072	24.5	1
0	14073	24.5	2
0	14074	24.5	1
0	14075	24.5	1
0	14076	24.5	2
0	14077	24.5	1
0	14107	24.55	1
0	14108	24.55	2
0	14109	24.55	1
0	14119	24.6	1
0	14120	24.6	2
0	14121	24.6	1
0	14122	24.6	1
0	14123	24.6	2
0	14124	24.6	1
0	14154	24.65	1
0	14155	24.65	2
0	14156	24.65	1
0	14166	24.7	1
0	14167	24.7	2
0	14168	24.7	1
0	14169	24.7	1
0	14170	24.7	2
0	14171	24.7	1
0	14187	24.75	1
0	14188	24.75	2
0	14189	24.75	1
0	14199	24.8	1
0	14200	24.8	2
0	14201	24.8	1
0	14202	24.8	1
0	14203	24.8	2
0	14204	24.8	1
0	14220	24.85	1
0	14221	24.85	2
0	14222	24.85	1
0	14246	24.9	1
0	14247	24.9	2
0	14248	24.9	1
0	14249	24.9	1
0	14250	24.9	2
0	14251	24.9	1
0	14267	24.95	1
0	14268	24.95	2
0	14269	24.95	1
0	14279	25	1
0	14280	25	2
0	14281	25	1
0	14282	25	1
0	14283	25	2
0	14284	25	1
0	14314	25.05	1
0	14315	25.05	2
0	14316	25.05	1
0	14340	25.1	1
0	14341	25.1	2
0	14342	25.1	1
0	14343	25.1	1
0	14344	25.1	2
0	14345	25.1	1
0	14361	25.15	1
0	14362	25.15	2
0	14363	25.15	1
0	14387	25.2	1
0	14388	25.2	2
0	14389	25.2	1
0	14390	25.2	1
0	14391	25.2	2
0	14392	25.2	1
0	14408	25.25	1
0	14409	25.25	2
0	14410	25.25	1
0	14420	25.3	1
0	14421	25.3	2
0	14422	25.3	1
0	14423	25.3	1
0	14424	25.3	2
0	14425	25.3	1
0	14441	25.35	1
0	14442	25.35	2
0	14443	25.35	1
0	14453	25.4	1
0	14454	25.4	2
0	14455	25.4	1
0	14456	25.4	1
0	14457	25.4	2
0	14458	25.4	1
0	14488	25.45	1
0	14489	25.45	2
0	14490	25.45	1
0	14500	25.5	1
0	14501	25.5	2
0	14502	25.5	1
0	14503	25.5	1
0	14504	25.5	2
0	14505	25.5	1
0	14521	25.55	1
0	14522	25.55	2
0	14523	25.55	1
0	14547	25.6	1
0	14548	25.6	2
0	14549	25.6	1
0	14550	25.6	1
0	14551	25.6	2
0	14552	25.6	1
0	14582	25.65	1
0	14583	25.65	2
0	14584	25.65	1
0	14594	25.7	1
0	14595	25.7	2
0	14596	25.7	1
0	14597	25.7	1
0	14598	25.7	2
0	14599	25.7	1
0	14629	25.75	1
0	14630	25.75	2
0	14631	25.75	1
0	14641	25.8	1
0	14642	25.8	2
0	14643	25.8	1
0	14644	25.8	1
0	14645	25.8	2
0	14646	25.8	1
0	14662	25.85	1
0	14663	25.85	2
0	14664	25.85	1
0	14674	25.9	1
0	14675	25.9	2
0	14676	25.9	1
0	14677	25.9	1
0	14678	25.9	2
0	14679	25.9	1
0	14695	25.95	1
0	14696	25.95	2
0	14697	25.95	1
0	14721	26	1
0	14722	26	2
0	14723	26	1
0	14724	26	1
0	14725	26	2
0	14726	26	1
0	14742	26.05	1
0	14743	26.05	2
0	14744	26.05	1
0	14754	26.1	1
0	14755	26.1	2
0	14756	26.1	1
0	14757	26.1	1
0	14758	26.1	2
0	14759	26.1	1
0	14789	26.15	1
0	14790	26.15	2
0	14791	26.15	1
0	14815	26.2	1
0	14816	26.2	2
0	14817	26.2	1
0	14818	26.2	1
0	14819	26.2	2
0	14820	26.2	1
0	14836	26.25	1
0	14837	26.25	2
0	14838	26.25	1
0	14862	26.3	1
0	14863	26.3	2
0	14864	26.3	1
0	14865	26.3	1
0	14866	26.3	2
0	14867	26.3	1
0	14883	26.35	1
0	14884	26.35	2
0	14885	26.35	1
0	14895	26.4	1
0	14896	26.4	2
0	14897	26.4	1
0	14898	26.4	1
0	14899	26.4	2
0	14900	26.4	1
0	14916	26.45	1
0	14917	26.45	2
0	14918	26.45	1
0	14928	26.5	1
0	14929	26.5	2
0	14930	26.5	1
0	14931	26.5	1
0	14932	26.5	2
0	14933	26.5	1
0	14963	26.55	1
0	14964	26.55	2
0	14965	26.55	1
0	14975	26.6	1
0	14976	26.6	2
0	14977	26.6	1
0	14978	26.6	1
0	14979	26.6	2
0	14980	26.6	1
0	14996	26.65	1
0	14997	26.65	2
0	14998	26.65	1
0	15022	26.7	1
0	15023	26.7	2
0	15024	26.7	1
0	15025	26.7	1
0	15026	26.7	2
0	15027	26.7	1
0	15053	26.75	1
0	15054	26.75	2
0	15055	26.75	1
0	15065	26.8	1
0	15066	26.8	2
0	15067	26.8	1
0	15068	26.8	1
0	15069	26.8	2
0	15070	26.8	1
0	15100	26.85	1
0	15101	26.85	2
0	15102	26.85	1
0	15112	26.9	1
0	15113	26.9	2
0	15114	26.9	1
0	15115	26.9	1
0	15116	26.9	2
0	15117	26.9	1
0	15133	26.95	1
0	15134	26.95	2
0	15135	26.95	1
0	15145	27	1
0	15146	27	2
0	15147	27	1
0	15148	27	1
0	15149	27	2
0	15150	27	1
0	15166	27.05	1
0	15167	27.05	2
0	15168	27.05	1
0	15192	27.1	1
0	15193	27.1	2
0	15194	27.1	1
0	15195	27.1	1
0	15196	27.1	2
0	15197	27.1	1
0	15213	27.15	1
0	15214	27.15	2
0	15215	27.15	1
0	15225	27.2	1
0	15226	27.2	2
0	15227	27.2	1
0	15228	27.2	1
0	15229	27.2	2
0	15230	27.2	1
0	15260	27.25	1
0	15261	27.25	2
0	15262	27.25	1
0	15286	27.3	1
0	15287	27.3	2
0	15288	27.3	1
0	15289	27.3	1
0	15290	27.3	2
0	15291	27.3	1
0	15307	27.35	1
0	15308	27.35	2
0	15309	27.35	1
0	15329	27.4	1
0	15330	27.4	2
0	15331	27.4	1
0	15332	27.4	1
0	15333	27.4	2
0	15334	27.4	1
0	15350	27.45	1
0	15351	27.45	2
0	15352	27.45	1
0	15362	27.5	1
0	15363	27.5	2
0	15364	27.5	1
0	15365	27.5	1
0	15366	27.5	2
0	15367	27.5	1
0	15383	27.55	1
0	15384	27.55	2
0	15385	27.55	1
0	15395	27.6	1
0	15396	27.6	2
0	15397	27.6	1
0	15398	27.6	1
0	15399	27.6	2
0	15400	27.6	1
0	15430	27.65	1
0	15431	27.65	2
0	15432	27.65	1
0	15442	27.7	1
0	15443	27.7	2
0	15444	27.7	1
0	15445	27.7	1
0	15446	27.7	2
0	15447	27.7	1
0	15463	27.75	1
0	15464	27.75	2
0	15465	27.75	1
0	15489	27.8	1
0	15490	27.8	2
0	15491	27.8	1
0	15492	27.8	1
0	15493	27.8	2
0	15494	27.8	1
0	15524	27.85	1
0	15525	27.85	2
0	15526	27.85	1
0	15536	27.9	1
0	15537	27.9	2
0	15538	27.9	1
0	15539	27.9	1
0	15540	27.9	2
0	15541	27.9	1
0	15560	27.95	1
0	15561	27.95	2
0	15562	27.95	1
0	15572	28	1
0	15573	28	2
0	15574	28	1
0	15575	28	1
0	15576	28	2
0	15577	28	1
0	15593	28.05	1
0	15594	28.05	2
0	15595	28.05	1
0	15605	28.1	1
0	15606	28.1	2
0	15607	28.1	1
0	15608	28.1	1
0	15609	28.1	2
0	15610	28.1	1
0	15626	28.15	1
0	15627	28.15	2
0	15628	28.15	1
0	15652	28.2	1
0	15653	28.2	2
0	15654	28.2	1
0	15655	28.2	1
0	15656	28.2	2
0	15657	28.2	1
0	15673	28.25	1
0	15674	28.25	2
0	15675	28.25	1
0	15685	28.3	1
0	15686	28.3	2
0	15687	28.3	1
0	15688	28.3	1
0	15689	28.3	2
0	15690	28.3	1
0	15706	28.35	1
0	15707	28.35	2
0	15708	28.35	1
0	15732	28.4	1
0	15733	28.4	2
0	15734	28.4	1
0	15735	28.4	1
0	15736	28.4	2
0	15737	28.4	1
0	15753	28.45	1
0	15754	28.45	2
0	15755	28.45	1
0	15765	28.5	1
0	15766	28.5	2
0	15767	28.5	1
0	15768	28.5	1
0	15769	28.5	2
0	15770	28.5	1
0	15786	28.55	1
0	15787	28.55	2
0	15788	28.55	1
0	15798	28.6	1
0	15799	28.6	2
0	15800	28.6	1
0	15801	28.6	1
0	15802	28.6	2
0	15803	28.6	1
0	15819	28.65	1
0	15820	28.65	2
0	15821	28.65	1
0	15831	28.7	1
0	15832	28.7	2
0	15833	28.7	1
0	15834	28.7	1
0	15835	28.7	2
0	15836	28.7	1
0	15855	28.75	1
0	15856	28.75	2
0	15857	28.75	1
0	15867	28.8	1
0	15868	28.8	2
0	15869	28.8	1
0	15870	28.8	1
0	15871	28.8	2
0	15872	28.8	1
0	15888	28.85	1
0	15889	28.85	2
0	15890	28.85	1
0	15900	28.9	1
0	15901	28.9	2
0	15902	28.9	1
0	15903	28.9	1
0	15904	28.9	2
0	15905	28.9	1
0	15921	28.95	1
0	15922	28.95	2
0	15923	28.95	1
0	15933	29	1
0	15934	29	2
0	15935	29	1
0	15936	29	1
0	15937	29	2
0	15938	29	1
0	15954	29.05	1
0	15955	29.05	2
0	15956	29.05	1
0	15966	29.1	1
0	15967	29.1	2
0	15968	29.1	1
0	15969	29.1	1
0	15970	29.1	2
0	15971	29.1	1
0	15987	29.15	1
0	15988	29.15	2
0	15989	29.15	1
0	15999	29.2	1
0	16000	29.2	2
0	16001	29.2	1
0	16002	29.2	1
0	16003	29.2	2
0	16004	29.2	1
0	16020	29.25	1
0	16021	29.25	2
0	16022	29.25	1
0	16032	29.3	1
0	16033	29.3	2
0	16034	29.3	1
0	16035	29.3	1
0	16036	29.3	2
0	16037	29.3	1
0	16053	29.35	1
0	16054	29.35	2
0	16055	29.35	1
0	16079	29.4	1
0	16080	29.4	2
0	16081	29.4	1
0	16082	29.4	1
0	16083	29.4	2
0	16084	29.4	1
0	16100	29.45	1
0	16101	29.45	2
0	16102	29.45	1
0	16112	29.5	1
0	16113	29.5	2
0	16114	29.5	1
0	16115	29.5	1
0	16116	29.5	2
0	16117	29.5	1
0	16147	29.55	1
0	16148	29.55	2
0	16149	29.55	1
0	16159	29.6	1
0	16160	29.6	2
0	16161	29.6	1
0	16162	29.6	1
0	16163	29.6	2
0	16164	29.6	1
0	16180	29.65	1
0	16181	29.65	2
0	16182	29.65	1
0	16192	29.7	1
0	16193	29.7	2
0	16194	29.7	1
0	16195	29.7	1
0	16196	29.7	2
0	16197	29.7	1
0	16213	29.75	1
0	16214	29.75	2
0	16215	29.75	1
0	16225	29.8	1
0	16226	29.8	2
0	16227	29.8	1
0	16228	29.8	1
0	16229	29.8	2
0	16230	29.8	1
0	16246	29.85	1
0	16247	29.85	2
0	16248	29.85	1
0	16258	29.9	1
0	16259	29.9	2
0	16260	29.9	1
0	16261	29.9	1
0	16262	29.9	2
0	16263	29.9	1
0	16293	29.95	1
0	16294	29.95	2
0	16295	29.95	1
0	16315	30	1
0	16316	30	2
0	16317	30	1
0	16318	30	1
0	16319	30	2
0	16320	30	1
0	16336	30.05	1
0	16337	30.05	2
0	16338	30.05	1
0	16358	30.1	1
0	16359	30.1	2
0	16360	30.1	1
0	16361	30.1	1
0	16362	30.1	2
0	16363	30.1	1
0	16393	30.15	1
0	16394	30.15	2
0	16395	30.15	1
0	16405	30.2	1
0	16406	30.2	2
0	16407	30.2	1
0	16408	30.2	1
0	16409	30.2	2
0	16410	30.2	1
0	16426	30.25	1
0	16427	30.25	2
0	16428	30.25	1
0	16438	30.3	1
0	16439	30.3	2
0	16440	30.3	1
0	16441	30.3	1
0	16442	30.3	2
0	16443	30.3	1
0	16459	30.35	1
0	16460	30.35	2
0	16461	30.35	1
0	16471	30.4	1
0	16472	30.4	2
0	16473	30.4	1
0	16474	30.4	1
0	16475	30.4	2
0	16476	30.4	1
0	16492	30.45	1
0	16493	30.45	2
0	16494	30.45	1
0	16518	30.5	1
0	16519	30.5	2
0	16520	30.5	1
0	16521	30.5	1
0	16522	30.5	2
0	16523	30.5	1
0	16553	30.55	1
0	16554	30.55	2
0	16555	30.55	1
0	16565	30.6	1
0	16566	30.6	2
0	16567	30.6	1
0	16568	30.6	1
0	16569	30.6	2
0	16570	30.6	1
0	16600	30.65	1
0	16601	30.65	2
0	16602	30.65	1
0	16622	30.7	1
0	16623	30.7	2
0	16624	30.7	1
0	16625	30.7	1
0	16626	30.7	2
0	16627	30.7	1
0	16643	30.75	1
0	16644	30.75	2
0	16645	30.75	1
0	16655	30.8	1
0	16656	30.8	2
0	16657	30.8	1
0	16658	30.8	1
0	16659	30.8	2
0	16660	30.8	1
0	16676	30.85	1
0	16677	30.85	2
0	16678	30.85	1
0	16688	30.9	1
0	16689	30.9	2
0	16690	30.9	1
0	16691	30.9	1
0	16692	30.9	2
0	16693	30.9	1
0	16709	30.95	1
0	16710	30.95	2
0	16711	30.95	1
0	16721	31	1
0	16722	31	2
0	16723	31	1
0	16724	31	1
0	16725	31	2
0	16726	31	1
0	16756	31.05	1
0	16757	31.05	2
0	16758	31.05	1
0	16782	31.1	1
0	16783	31.1	2
0	16784	31.1	1
0	16785	31.1	1
0	16786	31.1	2
0	16787	31.1	1
0	16803	31.15	1
0	16804	31.15	2
0	16805	31.15	1
0	16829	31.2	1
0	16830	31.2	2
0	16831	31.2	1
0	16832	31.2	1
0	16833	31.2	2
0	16834	31.2	1
0	16853	31.25	1
0	16854	31.25	2
0	16855	31.25	1
0	16865	31.3	1
0	16866	31.3	2
0	16867	31.3	1
0	16868	31.3	1
0	16869	31.3	2
0	16870	31.3	1
0	16886	31.35	1
0	16887	31.35	2
0	16888	31.35	1
0	16898	31.4	1
0	16899	31.4	2
0	16900	31.4	1
0	16901	31.4	1
0	16902	31.4	2
0	16903	31.4	1
0	16919	31.45	1
0	16920	31.45	2
0	16921	31.45	1
0	16931	31.5	1
0	16932	31.5	2
0	16933	31.5	1
0	16934	31.5	1
0	16935	31.5	2
0	16936	31.5	1
0	16952	31.55	1
0	16953	31.55	2
0	16954	31.55	1
0	16978	31.6	1
0	16979	31.6	2
0	16980	31.6	1
0	16981	31.6	1
0	16982	31.6	2
0	16983	31.6	1
0	16999	31.65	1
0	17000	31.65	2
0	17001	31.65	1
0	17011	31.7	1
0	17012	31.7	2
0	17013	31.7	1
0	17014	31.7	1
0	17015	31.7	2
0	17016	31.7	1
0	17046	31.75	1
0	17047	31.75	2
0	17048	31.75	1
0	17058	31.8	1
0	17059	31.8	2
0	17060	31.8	1
0	17061	31.8	1
0	17062	31.8	2
0	17063	31.8	1
0	17079	31.85	1
0	17080	31.85	2
0	17081	31.85	1
0	17091	31.9	1
0	17092	31.9	2
0	17093	31.9	1
0	17094	31.9	1
0	17095	31.9	2
0	17096	31.9	1
0	17112	31.95	1
0	17113	31.95	2
0	17114	31.95	1
0	17124	32	1
0	17125	32	2
0	17126	32	1
0	17127	32	1
0	17128	32	2
0	17129	32	1
0	17145	32.05	1
0	17146	32.05	2
0	17147	32.05	1
0	17157	32.1	1
0	17158	32.1	2
0	17159	32.1	1
0	17160	32.1	1
0	17161	32.1	2
0	17162	32.1	1
0	17192	32.15	1
0	17193	32.15	2
0	17194	32.15	1
0	17204	32.2	1
0	17205	32.2	2
0	17206	32.2	1
0	17207	32.2	1
0	17208	32.2	2
0	17209	32.2	1
0	17225	32.25	1
0	17226	32.25	2
0	17227	32.25	1
0	17251	32.3	1
0	17252	32.3	2
0	17253	32.3	1
0	17254	32.3	1
0	17255	32.3	2
0	17256	32.3	1
0	17272	32.35	1
0	17273	32.35	2
0	17274	32.35	1
0	17284	32.4	1
0	17285	32.4	2
0	17286	32.4	1
0	17287	32.4	1
0	17288	32.4	2
0	17289	32.4	1
0	17305	32.45	1
0	17306	32.45	2
0	17307	32.45	1
0	17317	32.5	1
0	17318	32.5	2
0	17319	32.5	1
0	17320	32.5	1
0	17321	32.5	2
0	17322	32.5	1
0	17338	32.55	1
0	17339	32.55	2
0	17340	32.55	1
0	17350	32.6	1
0	17351	32.6	2
0	17352	32.6	1
0	17353	32.6	1
0	17354	32.6	2
0	17355	32.6	1
0	17385	32.65	1
0	17386	32.65	2
0	17387	32.65	1
0	17411	32.7	1
0	17412	32.7	2
0	17413	32.7	1
0	17414	32.7	1
0	17415	32.7	2
0	17416	32.7	1
0	17432	32.75	1
0	17433	32.75	2
0	17434	32.75	1
0	17458	32.8	1
0	17459	32.8	2
0	17460	32.8	1
0	17461	32.8	1
0	17462	32.8	2
0	17463	32.8	1
0	17493	32.85	1
0	17494	32.85	2
0	17495	32.85	1
0	17505	32.9	1
0	17506	32.9	2
0	17507	32.9	1
0	17508	32.9	1
0	17509	32.9	2
0	17510	32.9	1
0	17526	32.95	1
0	17527	32.95	2
0	17528	32.95	1
0	17538	33	1
0	17539	33	2
0	17540	33	1
0	17541	33	1
0	17542	33	2
0	17543	33	1
0	17559	33.05	1
0	17560	33.05	2
0	17561	33.05	1
0	17571	33.1	1
0	17572	33.1	2
0	17573	33.1	1
0	17574	33.1	1
0	17575	33.1	2
0	17576	33.1	1
0	17592	33.15	1
0	17593	33.15	2
0	17594	33.15	1
0	17618	33.2	1
0	17619	33.2	2
0	17620	33.2	1
0	17621	33.2	1
0	17622	33.2	2
0	17623	33.2	1
0	17653	33.25	1
0	17654	33.25	2
0	17655	33.25	1
0	17665	33.3	1
0	17666	33.3	2
0	17667	33.3	1
0	17668	33.3	1
0	17669	33.3	2
0	17670	33.3	1
0	17700	33.35	1
0	17701	33.35	2
0	17702	33.35	1
0	17722	33.4	1
0	17723	33.4	2
0	17724	33.4	1
0	17725	33.4	1
0	17726	33.4	2
0	17727	33.4	1
0	17743	33.45	1
0	17744	33.45	2
0	17745	33.45	1
0	17755	33.5	1
0	17756	33.5	2
0	17757	33.5	1
0	17758	33.5	1
0	17759	33.5	2
0	17760	33.5	1
0	17776	33.55	1
0	17777	33.55	2
0	17778	33.55	1
0	17788	33.6	1
0	17789	33.6	2
0	17790	33.6	1
0	17791	33.6	1
0	17792	33.6	2
0	17793	33.6	1
0	17809	33.65	1
0	17810	33.65	2
0	17811	33.65	1
0	17821	33.7	1
0	17822	33.7	2
0	17823	33.7	1
0	17824	33.7	1
0	17825	33.7	2
0	17826	33.7	1
0	17856	33.75	1
0	17857	33.75	2
0	17858	33.75	1
0	17882	33.8	1
0	17883	33.8	2
0	17884	33.8	1
0	17885	33.8	1
0	17886	33.8	2
0	17887	33.8	1
0	17903	33.85	1
0	17904	33.85	2
0	17905	33.85	1
0	17929	33.9	1
0	17930	33.9	2
0	17931	33.9	1
0	17932	33.9	1
0	17933	33.9	2
0	17934	33.9	1
0	17964	33.95	1
0	17965	33.95	2
0	17966	33.95	1
0	17976	34	1
0	17977	34	2
0	17978	34	1
0	17979	34	1
0	17980	34	2
0	17981	34	1
0	17997	34.05	1
0	17998	34.05	2
0	17999	34.05	1
0	18009	34.1	1
0	18010	34.1	2
0	18011	34.1	1
0	18012	34.1	1
0	18013	34.1	2
0	18014	34.1	1
0	18030	34.15	1
0	18031	34.15	2
0	18032	34.15	1
0	18042	34.2	1
0	18043	34.2	2
0	18044	34.2	1
0	18045	34.2	1
0	18046	34.2	2
0	18047	34.2	1
0	18063	34.25	1
0	18064	34.25	2
0	18065	34.25	1
0	18089	34.3	1
0	18090	34.3	2
0	18091	34.3	1
0	18092	34.3	1
0	18093	34.3	2
0	18094	34.3	1
0	18124	34.35	1
0	18125	34.35	2
0	18126	34.35	1
0	18136	34.4	1
0	18137	34.4	2
0	18138	34.4	1
0	18139	34.4	1
0	18140	34.4	2
0	18141	34.4	1
0	18171	34.45	1
0	18172	34.45	2
0	18173	34.45	1
0	18197	34.5	1
0	18198	34.5	2
0	18199	34.5	1
0	18200	34.5	1
0	18201	34.5	2
0	18202	34.5	1
0	18218	34.55	1
0	18219	34.55	2
0	18220	34.55	1
0	18230	34.6	1
0	18231	34.6	2
0	18232	34.6	1
0	18233	34.6	1
0	18234	34.6	2
0	18235	34.6	1
0	18251	34.65	1
0	18252	34.65	2
0	18253	34.65	1
0	18263	34.7	1
0	18264	34.7	2
0	18265	34.7	1
0	18266	34.7	1
0	18267	34.7	2
0	18268	34.7	1
0	18284	34.75	1
0	18285	34.75	2
0	18286	34.75	1
0	18296	34.8	1
0	18297	34.8	2
0	18298	34.8	1
0	18299	34.8	1
0	18300	34.8	2
0	18301	34.8	1
0	18331	34.85	1
0	18332	34.85	2
0	18333	34.85	1
0	18357	34.9	1
0	18358	34.9	2
0	18359	34.9	1
0	18360	34.9	1
0	18361	34.9	2
0	18362	34.9	1
0	18378	34.95	1
0	18379	34.95	2
0	18380	34.95	1
0	18404	35	1
0	18405	35	2
0	18406	35	1
0	18407	35	1
0	18408	35	2
0	18409	35	1
0	18439	35.05	1
0	18440	35.05	2
0	18441	35.05	1
0	18451	35.1	1
0	18452	35.1	2
0	18453	35.1	1
0	18454	35.1	1
0	18455	35.1	2
0	18456	35.1	1
0	18472	35.15	1
0	18473	35.15	2
0	18474	35.15	1
0	18484	35.2	1
0	18485	35.2	2
0	18486	35.2	1
0	18487	35.2	1
0	18488	35.2	2
0	18489	35.2	1
0	18505	35.25	1
0	18506	35.25	2
0	18507	35.25	1
0	18517	35.3	1
0	18518	35.3	2
0	18519	35.3	1
0	18520	35.3	1
0	18521	35.3	2
0	18522	35.3	1
0	18538	35.35	1
0	18539	35.35	2
0	18540	35.35	1
0	18564	35.4	1
0	18565	35.4	2
0	18566	35.4	1
0	18567	35.4	1
0	18568	35.4	2
0	18569	35.4	1
0	18599	35.45	1
0	18600	35.45	2
0	18601	35.45	1
0	18611	35.5	1
0	18612	35.5	2
0	18613	35.5	1
0	18614	35.5	1
0	18615	35.5	2
0	18616	35.5	1
0	18646	35.55	1
0	18647	35.55	2
0	18648	35.55	1
0	18672	35.6	1
0	18673	35.6	2
0	18674	35.6	1
0	18675	35.6	1
0	18676	35.6	2
0	18677	35.6	1
0	18693	35.65	1
0	18694	35.65	2
0	18695	35.65	1
0	18705	35.7	1
0	18706	35.7	2
0	18707	35.7	1
0	18708	35.7	1
0	18709	35.7	2
0	18710	35.7	1
0	18726	35.75	1
0	18727	35.75	2
0	18728	35.75	1
0	18738	35.8	1
0	18739	35.8	2
0	18740	35.8	1
0	18741	35.8	1
0	18742	35.8	2
0	18743	35.8	1
0	18759	35.85	1
0	18760	35.85	2
0	18761	35.85	1
0	18771	35.9	1
0	18772	35.9	2
0	18773	35.9	1
0	18774	35.9	1
0	18775	35.9	2
0	18776	35.9	1
0	18806	35.95	1
0	18807	35.95	2
0	18808	35.95	1
0	18832	36	1
0	18833	36	2
0	18834	36	1
0	18835	36	1
0	18836	36	2
0	18837	36	1
0	18853	36.05	1
0	18854	36.05	2
0	18855	36.05	1
0	18879	36.1	1
0	18880	36.1	2
0	18881	36.1	1
0	18882	36.1	1
0	18883	36.1	2
0	18884	36.1	1
0	18914	36.15	1
0	18915	36.15	2
0	18916	36.15	1
0	18926	36.2	1
0	18927	36.2	2
0	18928	36.2	1
0	18929	36.2	1
0	18930	36.2	2
0	18931	36.2	1
0	18947	36.25	1
0	18948	36.25	2
0	18949	36.25	1
0	18959	36.3	1
0	18960	36.3	2
0	18961	36.3	1
0	18962	36.3	1
0	18963	36.3	2
0	18964	36.3	1
0	18980	36.35	1
0	18981	36.35	2
0	18982	36.35	1
0	18992	36.4	1
0	18993	36.4	2
0	18994	36.4	1
0	18995	36.4	1
0	18996	36.4	2
0	18997	36.4	1
0	19013	36.45	1
0	19014	36.45	2
0	19015	36.45	1
0	19039	36.5	1
0	19040	36.5	2
0	19041	36.5	1
0	19042	36.5	1
0	19043	36.5	2
0	19044	36.5	1
0	19074	36.55	1
0	19075	36.55	2
0	19076	36.55	1
0	19086	36.6	1
0	19087	36.6	2
0	19088	36.6	1
0	19089	36.6	1
0	19090	36.6	2
0	19091	36.6	1
0	19121	36.65	1
0	19122	36.65	2
0	19123	36.65	1
0	19147	36.7	1
0	19148	36.7	2
0	19149	36.7	1
0	19150	36.7	1
0	19151	36.7	2
0	19152	36.7	1
0	19168	36.75	1
0	19169	36.75	2
0	19170	36.75	1
0	19180	36.8	1
0	19181	36.8	2
0	19182	36.8	1
0	19183	36.8	1
0	19184	36.8	2
0	19185	36.8	1
0	19201	36.85	1
0	19202	36.85	2
0	19203	36.85	1
0	19213	36.9	1
0	19214	36.9	2
0	19215	36.9	1
0	19216	36.9	1
0	19217	36.9	2
0	19218	36.9	1
0	19234	36.95	1
0	19235	36.95	2
0	19236	36.95	1
0	19246	37	1
0	19247	37	2
0	19248	37	1
0	19249	37	1
0	19250	37	2
0	19251	37	1
0	19281	37.05	1
0	19282	37.05	2
0	19283	37.05	1
0	19307	37.1	1
0	19308	37.1	2
0	19309	37.1	1
0	19310	37.1	1
0	19311	37.1	2
0	19312	37.1	1
0	19328	37.15	1
0	19329	37.15	2
0	19330	37.15	1
0	19354	37.2	1
0	19355	37.2	2
0	19356	37.2	1
0	19357	37.2	1
0	19358	37.2	2
0	19359	37.2	1
0	19389	37.25	1
0	19390	37.25	2
0	19391	37.25	1
0	19401	37.3	1
0	19402	37.3	2
0	19403	37.3	1
0	19404	37.3	1
0	19405	37.3	2
0	19406	37.3	1
0	19422	37.35	1
0	19423	37.35	2
0	19424	37.35	1
0	19434	37.4	1
0	19435	37.4	2
0	19436	37.4	1
0	19437	37.4	1
0	19438	37.4	2
0	19439	37.4	1
0	19455	37.45	1
0	19456	37.45	2
0	19457	37.45	1
0	19467	37.5	1
0	19468	37.5	2
0	19469	37.5	1
0	19470	37.5	1
0	19471	37.5	2
0	19472	37.5	1
0	19488	37.55	1
0	19489	37.55	2
0	19490	37.55	1
0	19514	37.6	1
0	19515	37.6	2
0	19516	37.6	1
0	19517	37.6	1
0	19518	37.6	2
0	19519	37.6	1
0	19549	37.65	1
0	19550	37.65	2
0	19551	37.65	1
0	19561	37.7	1
0	19562	37.7	2
0	19563	37.7	1
0	19564	37.7	1
0	19565	37.7	2
0	19566	37.7	1
0	19596	37.75	1
0	19597	37.75	2
0	19598	37.75	1
0	19622	37.8	1
0	19623	37.8	2
0	19624	37.8	1
0	19625	37.8	1
0	19626	37.8	2
0	19627	37.8	1
0	19643	37.85	1
0	19644	37.85	2
0	19645	37.85	1
0	19655	37.9	1
0	19656	37.9	2
0	19657	37.9	1
0	19658	37.9	1
0	19659	37.9	2
0	19660	37.9	1
0	19676	37.95	1
0	19677	37.95	2
0	19678	37.95	1
0	19688	38	1
0	19689	38	2
0	19690	38	1
0	19691	38	1
0	19692	38	2
0	19693	38	1
0	19709	38.05	1
0	19710	38.05	2
0	19711	38.05	1
0	19721	38.1	1
0	19722	38.1	2
0	19723	38.1	1
0	19724	38.1	1
0	19725	38.1	2
0	19726	38.1	1
0	19756	38.15	1
0	19757	38.15	2
0	19758	38.15	1
0	19782	38.2	1
0	19783	38.2	2
0	19784	38.2	1
0	19785	38.2	1
0	19786	38.2	2
0	19787	38.2	1
0	19803	38.25	1
0	19804	38.25	2
0	19805	38.25	1
0	19829	38.3	1
0	19830	38.3	2
0	19831	38.3	1
0	19832	38.3	1
0	19833	38.3	2
0	19834	38.3	1
0	19864	38.35	1
0	19865	38.35	2
0	19866	38.35	1
0	19876	38.4	1
0	19877	38.4	2
0	19878	38.4	1
0	19879	38.4	1
0	19880	38.4	2
0	19881	38.4	1
0	19897	38.45	1
0	19898	38.45	2
0	19899	38.45	1
0	19909	38.5	1
0	19910	38.5	2
0	19911	38.5	1
0	19912	38.5	1
0	19913	38.5	2
0	19914	38.5	1
0	19930	38.55	1
0	19931	38.55	2
0	19932	38.55	1
0	19942	38.6	1
0	19943	38.6	2
0	19944	38.6	1
0	19945	38.6	1
0	19946	38.6	2
0	19947	38.6	1
0	19963	38.65	1
0	19964	38.65	2
0	19965	38.65	1
0	19978	38.7	1
0	19979	38.7	2
0	19980	38.7	1
0	19981	38.7	1
0	19982	38.7	2
0	19983	38.7	1
0	20013	38.75	1
0	20014	38.75	2
0	20015	38.75	1
0	20025	38.8	1
0	20026	38.8	2
0	20027	38.8	1
0	20028	38.8	1
0	20029	38.8	2
0	20030	38.8	1
0	20046	38.85	1
0	20047	38.85	2
0	20048	38.85	1
0	20068	38.9	1
0	20069	38.9	2
0	20070	38.9	1
0	20071	38.9	1
0	20072	38.9	2
0	20073	38.9	1
0	20089	38.95	1
0	20090	38.95	2
0	20091	38.95	1
0	20101	39	1
0	20102	39	2
0	20103	39	1
0	20104	39	1
0	20105	39	2
0	20106	39	1
0	20122	39.05	1
0	20123	39.05	2
0	20124	39.05	1
0	20134	39.1	1
0	20135	39.1	2
0	20136	39.1	1
0	20137	39.1	1
0	20138	39.1	2
0	20139	39.1	1
0	20155	39.15	1
0	20156	39.15	2
0	20157	39.15	1
0	20167	39.2	1
0	20168	39.2	2
0	20169	39.2	1
0	20170	39.2	1
0	20171	39.2	2
0	20172	39.2	1
0	20188	39.25	1
0	20189	39.25	2
0	20190	39.25	1
0	20214	39.3	1
0	20215	39.3	2
0	20216	39.3	1
0	20217	39.3	1
0	20218	39.3	2
0	20219	39.3	1
0	20235	39.35	1
0	20236	39.35	2
0	20237	39.35	1
0	20247	39.4	1
0	20248	39.4	2
0	20249	39.4	1
0	20250	39.4	1
0	20251	39.4	2
0	20252	39.4	1
0	20282	39.45	1
0	20283	39.45	2
0	20284	39.45	1
0	20294	39.5	1
0	20295	39.5	2
0	20296	39.5	1
0	20297	39.5	1
0	20298	39.5	2
0	20299	39.5	1
0	20315	39.55	1
0	20316	39.55	2
0	20317	39.55	1
0	20327	39.6	1
0	20328	39.6	2
0	20329	39.6	1
0	20330	39.6	1
0	20331	39.6	2
0	20332	39.6	1
0	20348	39.65	1
0	20349	39.65	2
0	20350	39.65	1
0	20360	39.7	1
0	20361	39.7	2
0	20362	39.7	1
0	20363	39.7	1
0	20364	39.7	2
0	20365	39.7	1
0	20381	39.75	1
0	20382	39.75	2
0	20383	39.75	1
0	20393	39.8	1
0	20394	39.8	2
0	20395	39.8	1
0	20396	39.8	1
0	20397	39.8	2
0	20398	39.8	1
0	20428	39.85	1
0	20429	39.85	2
0	20430	39.85	1
0	20454	39.9	1
0	20455	39.9	2
0	20456	39.9	1
0	20457	39.9	1
0	20458	39.9	2
0	20459	39.9	1
0	20475	39.95	1
0	20476	39.95	2
0	20477	39.95	1
0	20501	40	1
0	20502	40	2
0	20503	40	1
0	20504	40	1
0	20505	40	2
0	20506	40	1
0	20536	40.05	1
0	20537	40.05	2
0	20538	40.05	1
0	20548	40.1	1
0	20549	40.1	2
0	20550	40.1	1
0	20551	40.1	1
0	20552	40.1	2
0	20553	40.1	1
0	20569	40.15	1
0	20570	40.15	2
0	20571	40.15	1
0	20581	40.2	1
0	20582	40.2	2
0	20583	40.2	1
0	20584	40.2	1
0	20585	40.2	2
0	20586	40.2	1
0	20602	40.25	1
0	20603	40.25	2
0	20604	40.25	1
0	20614	40.3	1
0	20615	40.3	2
0	20616	40.3	1
0	20617	40.3	1
0	20618	40.3	2
0	20619	40.3	1
0	20635	40.35	1
0	20636	40.35	2
0	20637	40.35	1
0	20661	40.4	1
0	20662	40.4	2
0	20663	40.4	1
0	20664	40.4	1
0	20665	40.4	2
0	20666	40.4	1
0	20696	40.45	1
0	20697	40.45	2
0	20698	40.45	1
0	20708	40.5	1
0	20709	40.5	2
0	20710	40.5	1
0	20711	40.5	1
0	20712	40.5	2
0	20713	40.5	1
0	20743	40.55	1
0	20744	40.55	2
0	20745	40.55	1
0	20769	40.6	1
0	20770	40.6	2
0	20771	40.6	1
0	20772	40.6	1
0	20773	40.6	2
0	20774	40.6	1
0	20790	40.65	1
0	20791	40.65	2
0	20792	40.65	1
0	20802	40.7	1
0	20803	40.7	2
0	20804	40.7	1
0	20805	40.7	1
0	20806	40.7	2
0	20807	40.7	1
0	20823	40.75	1
0	20824	40.75	2
0	20825	40.75	1
0	20835	40.8	1
0	20836	40.8	2
0	20837	40.8	1
0	20838	40.8	1
0	20839	40.8	2
0	20840	40.8	1
0	20856	40.85	1
0	20857	40.85	2
0	20858	40.85	1
0	20868	40.9	1
0	20869	40.9	2
0	20870	40.9	1
0	20871	40.9	1
0	20872	40.9	2
0	20873	40.9	1
0	20903	40.95	1
0	20904	40.95	2
0	20905	40.95	1
0	20929	41	1
0	20930	41	2
0	20931	41	1
0	20932	41	1
0	20933	41	2
0	20934	41	1
0	20950	41.05	1
0	20951	41.05	2
0	20952	41.05	1
0	20976	41.1	1
0	20977	41.1	2
0	20978	41.1	1
0	20979	41.1	1
0	20980	41.1	2
0	20981	41.1	1
0	21011	41.15	1
0	21012	41.15	2
0	21013	41.15	1
0	21023	41.2	1
0	21024	41.2	2
0	21025	41.2	1
0	21026	41.2	1
0	21027	41.2	2
0	21028	41.2	1
0	21044	41.25	1
0	21045	41.25	2
0	21046	41.25	1
0	21056	41.3	1
0	21057	41.3	2
0	21058	41.3	1
0	21059	41.3	1
0	21060	41.3	2
0	21061	41.3	1
0	21077	41.35	1
0	21078	41.35	2
0	21079	41.35	1
0	21089	41.4	1
0	21090	41.4	2
0	21091	41.4	1
0	21092	41.4	1
0	21093	41.4	2
0	21094	41.4	1
0	21110	41.45	1
0	21111	41.45	2
0	21112	41.45	1
0	21136	41.5	1
0	21137	41.5	2
0	21138	41.5	1
0	21139	41.5	1
0	21140	41.5	2
0	21141	41.5	1
0	21171	41.55	1
0	21172	41.55	2
0	21173	41.55	1
0	21183	41.6	1
0	21184	41.6	2
0	21185	41.6	1
0	21186	41.6	1
0	21187	41.6	2
0	21188	41.6	1
0	21218	41.65	1
0	21219	41.65	2
0	21220	41.65	1
0	21244	41.7	1
0	21245	41.7	2
0	21246	41.7	1
0	21247	41.7	1
0	21248	41.7	2
0	21249	41.7	1
0	21265	41.75	1
0	21266	41.75	2
0	21267	41.75	1
0	21277	41.8	1
0	21278	41.8	2
0	21279	41.8	1
0	21280	41.8	1
0	21281	41.8	2
0	21282	41.8	1
0	21298	41.85	1
0	21299	41.85	2
0	21300	41.85	1
0	21310	41.9	1
0	21311	41.9	2
0	21312	41.9	1
0	21313	41.9	1
0	21314	41.9	2
0	21315	41.9	1
0	21331	41.95	1
0	21332	41.95	2
0	21333	41.95	1
0	21343	42	1
0	21344	42	2
0	21345	42	1
0	21346	42	1
0	21347	42	2
0	21348	42	1
0	21378	42.05	1
0	21379	42.05	2
0	21380	42.05	1
0	21404	42.1	1
0	21405	42.1	2
0	21406	42.1	1
0	21407	42.1	1
0	21408	42.1	2
0	21409	42.1	1
0	21425	42.15	1
0	21426	42.15	2
0	21427	42.15	1
0	21451	42.2	1
0	21452	42.2	2
0	21453	42.2	1
0	21454	42.2	1
0	21455	42.2	2
0	21456	42.2	1
0	21486	42.25	1
0	21487	42.25	2
0	21488	42.25	1
0	21498	42.3	1
0	21499	42.3	2
0	21500	42.3	1
0	21501	42.3	1
0	21502	42.3	2
0	21503	42.3	1
0	21519	42.35	1
0	21520	42.35	2
0	21521	42.35	1
0	21531	42.4	1
0	21532	42.4	2
0	21533	42.4	1
0	21534	42.4	1
0	21535	42.4	2
0	21536	42.4	1
0	21552	42.45	1
0	21553	42.45	2
0	21554	42.45	1
0	21564	42.5	1
0	21565	42.5	2
0	21566	42.5	1
0	21567	42.5	1
0	21568	42.5	2
0	21569	42.5	1
0	21585	42.55	1
0	21586	42.55	2
0	21587	42.55	1
0	21611	42.6	1
0	21612	42.6	2
0	21613	42.6	1
0	21614	42.6	1
0	21615	42.6	2
0	21616	42.6	1
0	21646	42.65	1
0	21647	42.65	2
0	21648	42.65	1
0	21658	42.7	1
0	21659	42.7	2
0	21660	42.7	1
0	21661	42.7	1
0	21662	42.7	2
0	21663	42.7	1
0	21693	42.75	1
0	21694	42.75	2
0	21695	42.75	1
0	21719	42.8	1
0	21720	42.8	2
0	21721	42.8	1
0	21722	42.8	1
0	21723	42.8	2
0	21724	42.8	1
0	21740	42.85	1
0	21741	42.85	2
0	21742	42.85	1
0	21752	42.9	1
0	21753	42.9	2
0	21754	42.9	1
0	21755	42.9	1
0	21756	42.9	2
0	21757	42.9	1
0	21773	42.95	1
0	21774	42.95	2
0	21775	42.95	1
0	21785	43	1
0	21786	43	2
0	21787	43	1
0	21788	43	1
0	21789	43	2
0	21790	43	1
0	21806	43.05	1
0	21807	43.05	2
0	21808	43.05	1
0	21818	43.1	1
0	21819	43.1	2
0	21820	43.1	1
0	21821	43.1	1
0	21822	43.1	2
0	21823	43.1	1
0	21853	43.15	1
0	21854	43.15	2
0	21855	43.15	1
0	21879	43.2	1
0	21880	43.2	2
0	21881	43.2	1
0	21882	43.2	1
0	21883	43.2	2
0	21884	43.2	1
0	21900	43.25	1
0	21901	43.25	2
0	21902	43.25	1
0	21926	43.3	1
0	21927	43.3	2
0	21928	43.3	1
0	21929	43.3	1
0	21930	43.3	2
0	21931	43.3	1
0	21961	43.35	1
0	21962	43.35	2
0	21963	43.35	1
0	21973	43.4	1
0	21974	43.4	2
0	21975	43.4	1
0	21976	43.4	1
0	21977	43.4	2
0	21978	43.4	1
0	21994	43.45	1
0	21995	43.45	2
0	21996	43.45	1
0	22006	43.5	1
0	22007	43.5	2
0	22008	43.5	1
0	22009	43.5	1
0	22010	43.5	2
0	22011	43.5	1
0	22027	43.55	1
0	22028	43.55	2
0	22029	43.55	1
0	22039	43.6	1
0	22040	43.6	2
0	22041	43.6	1
0	22042	43.6	1
0	22043	43.6	2
0	22044	43.6	1
0	22060	43.65	1
0	22061	43.65	2
0	22062	43.65	1
0	22086	43.7	1
0	22087	43.7	2
0	22088	43.7	1
0	22089	43.7	1
0	22090	43.7	2
0	22091	43.7	1
0	22121	43.75	1
0	22122	43.75	2
0	22123	43.75	1
0	22133	43.8	1
0	22134	43.8	2
0	22135	43.8	1
0	22136	43.8	1
0	22137	43.8	2
0	22138	43.8	1
0	22164	43.85	1
0	22165	43.85	2
0	22166	43.85	1
0	22179	43.9	1
0	22180	43.9	2
0	22181	43.9	1
0	22182	43.9	1
0	22183	43.9	2
0	22184	43.9	1
0	22200	43.95	1
0	22201	43.95	2
0	22202	43.95	1
0	22212	44	1
0	22213	44	2
0	22214	44	1
0	22215	44	1
0	22216	44	2
0	22217	44	1
0	22233	44.05	1
0	22234	44.05	2
0	22235	44.05	1
0	22245	44.1	1
0	22246	44.1	2
0	22247	44.1	1
0	22248	44.1	1
0	22249	44.1	2
0	22250	44.1	1
0	22266	44.15	1
0	22267	44.15	2
0	22268	44.15	1
0	22278	44.2	1
0	22279	44.2	2
0	22280	44.2	1
0	22281	44.2	1
0	22282	44.2	2
0	22283	44.2	1
0	22313	44.25	1
0	22314	44.25	2
0	22315	44.25	1
0	22325	44.3	1
0	22326	44.3	2
0	22327	44.3	1
0	22328	44.3	1
0	22329	44.3	2
0	22330	44.3	1
0	22346	44.35	1
0	22347	44.35	2
0	22348	44.35	1
0	22372	44.4	1
0	22373	44.4	2
0	22374	44.4	1
0	22375	44.4	1
0	22376	44.4	2
0	22377	44.4	1
0	22393	44.45	1
0	22394	44.45	2
0	22395	44.45	1
0	22405	44.5	1
0	22406	44.5	2
0	22407	44.5	1
0	22408	44.5	1
0	22409	44.5	2
0	22410	44.5	1
0	22426	44.55	1
0	22427	44.55	2
0	22428	44.55	1
0	22438	44.6	1
0	22439	44.6	2
0	22440	44.6	1
0	22441	44.6	1
0	22442	44.6	2
0	22443	44.6	1
0	22459	44.65	1
0	22460	44.65	2
0	22461	44.65	1
0	22471	44.7	1
0	22472	44.7	2
0	22473	44.7	1
0	22474	44.7	1
0	22475	44.7	2
0	22476	44.7	1
0	22492	44.75	1
0	22493	44.75	2
0	22494	44.75	1
0	22518	44.8	1
0	22519	44.8	2
0	22520	44.8	1
0	22521	44.8	1
0	22522	44.8	2
0	22523	44.8	1
0	22539	44.85	1
0	22540	44.85	2
0	22541	44.85	1
0	22551	44.9	1
0	22552	44.9	2
0	22553	44.9	1
0	22554	44.9	1
0	22555	44.9	2
0	22556	44.9	1
0	22586	44.95	1
0	22587	44.95	2
0	22588	44.95	1
0	22598	45	1
0	22599	45	2
0	22600	45	1
0	22601	45	1
0	22602	45	2
0	22603	45	1
0	22619	45.05	1
0	22620	45.05	2
0	22621	45.05	1
0	22631	45.1	1
0	22632	45.1	2
0	22633	45.1	1
0	22634	45.1	1
0	22635	45.1	2
0	22636	45.1	1
0	22652	45.15	1
0	22653	45.15	2
0	22654	45.15	1
0	22664	45.2	1
0	22665	45.2	2
0	22666	45.2	1
0	22667	45.2	1
0	22668	45.2	2
0	22669	45.2	1
0	22685	45.25	1
0	22686	45.25	2
0	22687	45.25	1
0	22697	45.3	1
0	22698	45.3	2
0	22699	45.3	1
0	22700	45.3	1
0	22701	45.3	2
0	22702	45.3	1
0	22746	45.35	1
0	22747	45.35	2
0	22748	45.35	1
0	22758	45.4	1
0	22759	45.4	2
0	22760	45.4	1
0	22761	45.4	1
0	22762	45.4	2
0	22763	45.4	1
0	22779	45.45	1
0	22780	45.45	2
0	22781	45.45	1
0	22808	45.5	1
0	22809	45.5	2
0	22810	45.5	1
0	22811	45.5	1
0	22812	45.5	2
0	22813	45.5	1
0	22829	45.55	1
0	22830	45.55	2
0	22831	45.55	1
0	22841	45.6	1
0	22842	45.6	2
0	22843	45.6	1
0	22844	45.6	1
0	22845	45.6	2
0	22846	45.6	1
0	22862	45.65	1
0	22863	45.65	2
0	22864	45.65	1
0	22874	45.7	1
0	22875	45.7	2
0	22876	45.7	1
0	22877	45.7	1
0	22878	45.7	2
0	22879	45.7	1
0	22895	45.75	1
0	22896	45.75	2
0	22897	45.75	1
0	22907	45.8	1
0	22908	45.8	2
0	22909	45.8	1
0	22910	45.8	1
0	22911	45.8	2
0	22912	45.8	1
0	22928	45.85	1
0	22929	45.85	2
0	22930	45.85	1
0	22954	45.9	1
0	22955	45.9	2
0	22956	45.9	1
0	22957	45.9	1
0	22958	45.9	2
0	22959	45.9	1
0	22975	45.95	1
0	22976	45.95	2
0	22977	45.95	1
0	22987	46	1
0	22988	46	2
0	22989	46	1
0	22990	46	1
0	22991	46	2
0	22992	46	1
0	23022	46.05	1
0	23023	46.05	2
0	23024	46.05	1
0	23034	46.1	1
0	23035	46.1	2
0	23036	46.1	1
0	23037	46.1	1
0	23038	46.1	2
0	23039	46.1	1
0	23055	46.15	1
0	23056	46.15	2
0	23057	46.15	1
0	23067	46.2	1
0	23068	46.2	2
0	23069	46.2	1
0	23070	46.2	1
0	23071	46.2	2
0	23072	46.2	1
0	23088	46.25	1
0	23089	46.25	2
0	23090	46.25	1
0	23100	46.3	1
0	23101	46.3	2
0	23102	46.3	1
0	23103	46.3	1
0	23104	46.3	2
0	23105	46.3	1
0	23121	46.35	1
0	23122	46.35	2
0	23123	46.35	1
0	23133	46.4	1
0	23134	46.4	2
0	23135	46.4	1
0	23136	46.4	1
0	23137	46.4	2
0	23138	46.4	1
0	23168	46.45	1
0	23169	46.45	2
0	23170	46.45	1
0	23180	46.5	1
0	23181	46.5	2
0	23182	46.5	1
0	23183	46.5	1
0	23184	46.5	2
0	23185	46.5	1
0	23201	46.55	1
0	23202	46.55	2
0	23203	46.55	1
0	23227	46.6	1
0	23228	46.6	2
0	23229	46.6	1
0	23230	46.6	1
0	23231	46.6	2
0	23232	46.6	1
0	23248	46.65	1
0	23249	46.65	2
0	23250	46.65	1
0	23260	46.7	1
0	23261	46.7	2
0	23262	46.7	1
0	23263	46.7	1
0	23264	46.7	2
0	23265	46.7	1
0	23281	46.75	1
0	23282	46.75	2
0	23283	46.75	1
0	23293	46.8	1
0	23294	46.8	2
0	23295	46.8	1
0	23296	46.8	1
0	23297	46.8	2
0	23298	46.8	1
0	23314	46.85	1
0	23315	46.85	2
0	23316	46.85	1
0	23326	46.9	1
0	23327	46.9	2
0	23328	46.9	1
0	23329	46.9	1
0	23330	46.9	2
0	23331	46.9	1
0	23361	46.95	1
0	23362	46.95	2
0	23363	46.95	1
0	23387	47	1
0	23388	47	2
0	23389	47	1
0	23390	47	1
0	23391	47	2
0	23392	47	1
0	23408	47.05	1
0	23409	47.05	2
0	23410	47.05	1
0	23434	47.1	1
0	23435	47.1	2
0	23436	47.1	1
0	23437	47.1	1
0	23438	47.1	2
0	23439	47.1	1
0	23469	47.15	1
0	23470	47.15	2
0	23471	47.15	1
0	23481	47.2	1
0	23482	47.2	2
0	23483	47.2	1
0	23484	47.2	1
0	23485	47.2	2
0	23486	47.2	1
0	23502	47.25	1
0	23503	47.25	2
0	23504	47.25	1
0	23514	47.3	1
0	23515	47.3	2
0	23516	47.3	1
0	23517	47.3	1
0	23518	47.3	2
0	23519	47.3	1
0	23535	47.35	1
0	23536	47.35	2
0	23537	47.35	1
0	23547	47.4	1
0	23548	47.4	2
0	23549	47.4	1
0	23550	47.4	1
0	23551	47.4	2
0	23552	47.4	1
0	23568	47.45	1
0	23569	47.45	2
0	23570	47.45	1
0	23594	47.5	1
0	23595	47.5	2
0	23596	47.5	1
0	23597	47.5	1
0	23598	47.5	2
0	23599	47.5	1
0	23629	47.55	1
0	23630	47.55	2
0	23631	47.55	1
0	23641	47.6	1
0	23642	47.6	2
0	23643	47.6	1
0	23644	47.6	1
0	23645	47.6	2
0	23646	47.6	1
0	23676	47.65	1
0	23677	47.65	2
0	23678	47.65	1
0	23702	47.7	1
0	23703	47.7	2
0	23704	47.7	1
0	23705	47.7	1
0	23706	47.7	2
0	23707	47.7	1
0	23723	47.75	1
0	23724	47.75	2
0	23725	47.75	1
0	23735	47.8	1
0	23736	47.8	2
0	23737	47.8	1
0	23738	47.8	1
0	23739	47.8	2
0	23740	47.8	1
0	23756	47.85	1
0	23757	47.85	2
0	23758	47.85	1
0	23768	47.9	1
0	23769	47.9	2
0	23770	47.9	1
0	23771	47.9	1
0	23772	47.9	2
0	23773	47.9	1
0	23789	47.95	1
0	23790	47.95	2
0	23791	47.95	1
0	23801	48	1
0	23802	48	2
0	23803	48	1
0	23804	48	1
0	23805	48	2
0	23806	48	1
0	23836	48.05	1
0	23837	48.05	2
0	23838	48.05	1
0	23862	48.1	1
0	23863	48.1	2
0	23864	48.1	1
0	23865	48.1	1
0	23866	48.1	2
0	23867	48.1	1
0	23883	48.15	1
0	23884	48.15	2
0	23885	48.15	1
0	23909	48.2	1
0	23910	48.2	2
0	23911	48.2	1
0	23912	48.2	1
0	23913	48.2	2
0	23914	48.2	1
0	23944	48.25	1
0	23945	48.25	2
0	23946	48.25	1
0	23956	48.3	1
0	23957	48.3	2
0	23958	48.3	1
0	23959	48.3	1
0	23960	48.3	2
0	23961	48.3	1
0	23977	48.35	1
0	23978	48.35	2
0	23979	48.35	1
0	23989	48.4	1
0	23990	48.4	2
0	23991	48.4	1
0	23992	48.4	1
0	23993	48.4	2
0	23994	48.4	1
0	24010	48.45	1
0	24011	48.45	2
0	24012	48.45	1
0	24022	48.5	1
0	24023	48.5	2
0	24024	48.5	1
0	24025	48.5	1
0	24026	48.5	2
0	24027	48.5	1
0	24043	48.55	1
0	24044	48.55	2
0	24045	48.55	1
0	24058	48.6	1
0	24059	48.6	2
0	24060	48.6	1
0	24061	48.6	1
0	24062	48.6	2
0	24063	48.6	1
0	24082	48.65	1
0	24083	48.65	2
0	24084	48.65	1
0	24094	48.7	1
0	24095	48.7	2
0	24096	48.7	1
0	24097	48.7	1
0	24098	48.7	2
0	24099	48.7	1
0	24115	48.75	1
0	24116	48.75	2
0	24117	48.75	1
0	24127	48.8	1
0	24128	48.8	2
0	24129	48.8	1
0	24130	48.8	1
0	24131	48.8	2
0	24132	48.8	1
0	24148	48.85	1
0	24149	48.85	2
0	24150	48.85	1
0	24160	48.9	1
0	24161	48.9	2
0	24162	48.9	1
0	24163	48.9	1
0	24164	48.9	2
0	24165	48.9	1
0	24181	48.95	1
0	24182	48.95	2
0	24183	48.95	1
0	24193	49	1
0	24194	49	2
0	24195	49	1
0	24196	49	1
0	24197	49	2
0	24198	49	1
0	24214	49.05	1
0	24215	49.05	2
0	24216	49.05	1
0	24226	49.1	1
0	24227	49.1	2
0	24228	49.1	1
0	24229	49.1	1
0	24230	49.1	2
0	24231	49.1	1
0	24247	49.15	1
0	24248	49.15	2
0	24249	49.15	1
0	24259	49.2	1
0	24260	49.2	2
0	24261	49.2	1
0	24262	49.2	1
0	24263	49.2	2
0	24264	49.2	1
0	24280	49.25	1
0	24281	49.25	2
0	24282	49.25	1
0	24292	49.3	1
0	24293	49.3	2
0	24294	49.3	1
0	24295	49.3	1
0	24296	49.3	2
0	24297	49.3	1
0	24313	49.35	1
0	24314	49.35	2
0	24315	49.35	1
0	24325	49.4	1
0	24326	49.4	2
0	24327	49.4	1
0	24328	49.4	1
0	24329	49.4	2
0	24330	49.4	1
0	24346	49.45	1
0	24347	49.45	2
0	24348	49.45	1
0	24358	49.5	1
0	24359	49.5	2
0	24360	49.5	1
0	24361	49.5	1
0	24362	49.5	2
0	24363	49.5	1
0	24379	49.55	1
0	24380	49.55	2
0	24381	49.55	1
0	24391	49.6	1
0	24392	49.6	2
0	24393	49.6	1
0	24394	49.6	1
0	24395	49.6	2
0	24396	49.6	1
0	24412	49.65	1
0	24413	49.65	2
0	24414	49.65	1
0	24424	49.7	1
0	24425	49.7	2
0	24426	49.7	1
0	24427	49.7	1
0	24428	49.7	2
0	24429	49.7	1
0	24445	49.75	1
0	24446	49.75	2
0	24447	49.75	1
0	24471	49.8	1
0	24472	49.8	2
0	24473	49.8	1
0	24474	49.8	1
0	24475	49.8	2
0	24476	49.8	1
0	24506	49.85	1
0	24507	49.85	2
0	24508	49.85	1
0	24518	49.9	1
0	24519	49.9	2
0	24520	49.9	1
0	24521	49.9	1
0	24522	49.9	2
0	24523	49.9	1
0	24553	49.95	1
0	24554	49.95	2
0	24555	49.95	1
0	24579	50	1
0	24580	50	2
0	24581	50	1
0	24582	50	1
0	24583	50	2
0	24584	50	1
1	22	0.1	-nan
1	24	0.1	-nan
1	47	0.101	-nan
1	48	0.101	-nan
1	51	0.102	-nan
1	52	0.102	-nan
1	55	0.103	-nan
1	56	0.103	-nan
1	59	0.104	-nan
1	60	0.104	-nan
1	63	0.105	-nan
1	64	0.105	-nan
1	67	0.106	-nan
1	68	0.106	-nan
1	71	0.107	-nan
1	72	0.107	-nan
1	75	0.108	-nan
1	76	0.108	-nan
1	79	0.109	-nan
1	80	0.109	-nan
1	83	0.11	-nan
1	84	0.11	-nan
1	87	0.111	-nan
1	88	0.111	-nan
1	91	0.112	-nan
1	92	0.112	-nan
1	95	0.113	-nan
1	96	0.113	-nan
1	99	0.114	-nan
1	100	0.114	-nan
1	103	0.115	-nan
1	104	0.115	-nan
1	107	0.116	-nan
1	108	0.116	-nan
1	111	0.117	-nan
1	112	0.117	-nan
1	115	0.118	-nan
1	116	0.118	-nan
1	119	0.119	-nan
1	120	0.119	-nan
1	123	0.12	-nan
1	124	0.12	-nan
1	127	0.121	-nan
1	128	0.121	-nan
1	131	0.122	-nan
1	132	0.122	-nan
1	135	0.123	-nan
1	136	0.123	-nan
1	139	0.124	-nan
1	140	0.124	-nan
1	143	0.125	-nan
1	144	0.125	-nan
1	147	0.126	-nan
1	148	0.126	-nan
1	151	0.127	-nan
1	152	0.127	-nan
1	155	0.128	-nan
1	156	0.128	-nan
1	159	0.129	-nan
1	160	0.129	-nan
1	163	0.13	-nan
1	164	0.13	-nan
1	167	0.131	-nan
1	168	0.131	-nan
1	171	0.132	-nan
1	172	0.132	-nan
1	175	0.133	-nan
1	176	0.133	-nan
1	179	0.134	-nan
1	180	0.134	-nan
1	183	0.135	-nan
1	184	0.135	-nan
1	187	0.136	-nan
1	188	0.136	-nan
1	191	0.137	-nan
1	192	0.137	-nan
1	195	0.138	-nan
1	196	0.138	-nan
1	199	0.139	-nan
1	200	0.139	-nan
1	203	0.14	-nan
1	204	0.14	-nan
1	207	0.141	-nan
1	208	0.141	-nan
1	211	0.142	-nan
1	212	0.142	-nan
1	215	0.143	-nan
1	216	0.143	-nan
1	219	0.144	-nan
1	220	0.144	-nan
1	223	0.145	-nan
1	224	0.145	-nan
1	227	0.146	-nan
1	228	0.146	-nan
1	231	0.147	-nan
1	232	0.147	-nan
1	235	0.148	-nan
1	236	0.148	-nan
1	239	0.149	-nan
1	240	0.149	-nan
1	246	0.15	-nan
1	247	0.15	-nan
1	259	0.151	-nan
1	260	0.151	-nan
1	263	0.152	-nan
1	264	0.152	-nan
1	267	0.153	-nan
1	268	0.153	-nan
1	271	0.154	-nan
1	272	0.154	-nan
1	275	0.155	-nan
1	276	0.155	-nan
1	279	0.156	-nan
1	280	0.156	-nan
1	283	0.157	-nan
1	284	0.157	-nan
1	287	0.158	-nan
1	288	0.158	-nan
1	291	0.159	-nan
1	292	0.159	-nan
1	295	0.16	-nan
1	296	0.16	-nan
1	299	0.161	-nan
1	300	0.161	-nan
1	303	0.162	-nan
1	304	0.162	-nan
1	307	0.163	-nan
1	308	0.163	-nan
1	311	0.164	-nan
1	312	0.164	-nan
1	315	0.165	-nan
1	316	0.165	-nan
1	319	0.166	-nan
1	320	0.166	-nan
1	323	0.167	-nan
1	324	0.167	-nan
1	327	0.168	-nan
1	328	0.168	-nan
1	331	0.169	-nan
1	332	0.169	-nan
1	335	0.17	-nan
1	336	0.17	-nan
1	339	0.171	-nan
1	340	0.171	-nan
1	343	0.172	-nan
1	344	0.172	-nan
1	347	0.173	-nan
1	348	0.173	-nan
1	351	0.174	-nan
1	352	0.174	-nan
1	355	0.175	-nan
1	356	0.175	-nan
1	359	0.176	-nan
1	360	0.176	-nan
1	363	0.177	-nan
1	364	0.177	-nan
1	367	0.178	-nan
1	368	0.178	-nan
1	371	0.179	-nan
1	372	0.179	-nan
1	375	0.18	-nan
1	376	0.18	-nan
1	379	0.181	-nan
1	380	0.181	-nan
1	383	0.182	-nan
1	384	0.182	-nan
1	387	0.183	-nan
1	388	0.183	-nan
1	391	0.184	-nan
1	392	0.184	-nan
1	395	0.185	-nan
1	396	0.185	-nan
1	399	0.186	-nan
1	400	0.186	-nan
1	403	0.187	-nan
1	404	0.187	-nan
1	407	0.188	-nan
1	408	0.188	-nan
1	411	0.189	-nan
1	412	0.189	-nan
1	415	0.19	-nan
1	416	0.19	-nan
1	419	0.191	-nan
1	420	0.191	-nan
1	423	0.192	-nan
1	424	0.192	-nan
1	427	0.193	-nan
1	428	0.193	-nan
1	431	0.194	-nan
1	432	0.194	-nan
1	435	0.195	-nan
1	436	0.195	-nan
1	439	0.196	-nan
1	440	0.196	-nan
1	443	0.197	-nan
1	444	0.197	-nan
1	447	0.198	-nan
1	448	0.198	-nan
1	451	0.199	-nan
1	452	0.199	-nan
2	1032	1.142624192201	141
2	1054	1.156464192201	282
2	1064	1.170304192201	423
2	1074	1.184144192201	564
2	1084	1.197984192201	705
2	1115	1.211824192201	846
2	1125	1.225664192201	987
2	1135	1.239504192201	1128
2	1157	1.253344192201	1269
2	1167	1.267184192201	1410
2	1177	1.281024192201	1551
2	1187	1.294864192201	1692
2	1218	1.308704192201	1833
2	1228	1.322544192201	1974
2	1238	1.336384192201	2115
2	1260	1.350224192201	2256
2	1270	1.364064192201	2397
2	1280	1.377904192201	2538
2	1290	1.391744192201	2679
2	1322	1.419424192201	2820
2	1332	1.433264192201	2961
2	1342	1.447104192201	3102
2	1364	1.460944192201	3243
2	1374	1.474784192201	3384
2	1384	1.488624192201	3525
2	1412	1.502464192201	3666
2	1422	1.516304192201	3807
2	1432	1.530144192201	3948
2	1442	1.543984192201	4089
2	1464	1.557824192201	4230
2	1474	1.571664192201	4371
2	1485	1.599344192201	4512
2	1516	1.613184192201	4653
2	1526	1.627024192201	4794
2	1536	1.640864192201	4935
2	1566	1.654704192201	5076
2	1590	1.668544192201	5217
2	1600	1.682384192201	5358
2	1610	1.696224192201	5499
2	1638	1.710064192201	5640
2	1648	1.723904192201	5781
2	1658	1.737744192201	5922
2	1680	1.751584192201	6063
2	1690	1.765424192201	6204
2	1701	1.793104192201	6345
2	1732	1.806944192201	6486
2	1742	1.820784192201	6627
2	1749	1.834624192201	6768
2	1759	1.848464192201	6909
2	1781	1.862304192201	7050
2	1791	1.876144192201	7191
2	1801	1.889984192201	7332
2	1832	1.903824192201	7473
2	1842	1.917664192201	7614
2	1852	1.931504192201	7755
2	1862	1.945344192201	7896
2	1881	1.959184192201	8037
2	1891	1.973024192201	8178
2	1901	1.986864192201	8319
2	1932	2.000704192201	8460
2	1939	2.014544192201	8601
2	1949	2.028384192201	8742
2	1959	2.042224192201	8883
2	1981	2.056064192201	9024
2	1991	2.069904192201	9165
2	2001	2.083744192201	9306
2	2011	2.097584192201	9447
2	2042	2.111424192201	9588
2	2052	2.125264192201	9729
2	2062	2.139104192201	9870
2	2081	2.152944192201	10011
2	2091	2.166784192201	10152
2	2101	2.180624192201	10293
2	2111	2.194464192201	10434
2	2146	2.208304192201	10575
2	2156	2.222144192201	10716
2	2166	2.235984192201	10857
2	2176	2.249824192201	10998
2	2198	2.263664192201	11139
2	2208	2.277504192201	11280
2	2218	2.291344192201	11421
2	2249	2.305184192201	11562
2	2259	2.319024192201	11703
2	2269	2.332864192201	11844
2	2279	2.346704192201	11985
2	2301	2.360544192201	12126
2	2311	2.374384192201	12267
2	2321	2.388224192201	12408
2	2353	2.415904192201	12549
2	2363	2.429744192201	12690
2	2373	2.443584192201	12831
2	2395	2.457424192201	12972
2	2405	2.471264192201	13113
2	2415	2.485104192201	13254
2	2425	2.498944192201	13395
2	2456	2.512784192201	13536
2	2526	2.579413385287	13677
2	2536	2.593253385287	13818
2	2567	2.607093385287	13959
2	2574	2.620933385287	14100
2	2584	2.634773385287	14241
2	2594	2.648613385287	14382
2	2613	2.662453385287	14523
2	2623	2.676293385287	14664
2	2633	2.690133385287	14805
2	2668	2.703973385287	14946
2	2903	2.742293385287	15087
2	2925	2.756133385287	15228
2	2935	2.769973385287	15369
2	2945	2.783813385287	15510
2	2952	2.797653385287	15651
2	2983	2.811493385287	15792
2	2993	2.825333385287	15933
2	3003	2.839173385287	16074
2	3029	2.853013385287	16215
2	3042	2.866853385287	16356
2	3068	2.880693385287	16497
2	3078	2.894533385287	16638
2	3109	2.908373385287	16779
2	3119	2.922213385287	16920
2	3129	2.936053385287	17061
2	3139	2.949893385287	17202
2	3161	2.963733385287	17343
2	3171	2.977573385287	17484
2	3178	2.991413385287	17625
2	3209	3.005253385287	17766
2	3219	3.019093385287	17907
2	3229	3.032933385287	18048
2	3239	3.046773385287	18189
2	3261	3.060613385287	18330
2	3272	3.088293385287	18471
2	3301	3.115973385287	18612
2	3311	3.129813385287	18753
2	3321	3.143653385287	18894
2	3340	3.157493385287	19035
2	3350	3.171333385287	19176
2	3360	3.185173385287	19317
2	3370	3.199013385287	19458
2	3401	3.212853385287	19599
2	3411	3.226693385287	19740
2	3421	3.240533385287	19881
2	3447	3.254373385287	20022
2	3469	3.268213385287	20163
2	3479	3.282053385287	20304
2	3489	3.295893385287	20445
2	3520	3.309733385287	20586
2	3530	3.323573385287	20727
2	3540	3.337413385287	20868
2	3562	3.351253385287	21009
2	3569	3.365093385287	21150
2	3579	3.378933385287	21291
2	3589	3.392773385287	21432
2	3622	3.406613385287	21573
2	3644	3.420453385287	21714
2	3654	3.434293385287	21855
2	3664	3.448133385287	21996
2	3687	3.475813385287	22137
2	3697	3.489653385287	22278
2	3728	3.503493385287	22419
2	3738	3.517333385287	22560
2	3748	3.531173385287	22701
2	3771	3.558853385287	22842
2	3782	3.586533385287	22983
2	3810	3.600373385287	23124
2	3820	3.614213385287	23265
2	3830	3.628053385287	23406
2	3840	3.641893385287	23547
2	3862	3.655733385287	23688
2	3872	3.669573385287	23829
2	3882	3.683413385287	23970
2	3892	3.697253385287	24111
2	3923	3.711093385287	24252
2	3933	3.724933385287	24393
2	3943	3.738773385287	24534
2	3965	3.752613385287	24675
2	3975	3.766453385287	24816
2	3985	3.780293385287	24957
2	3995	3.794133385287	25098
2	4028	3.807973385287	25239
2	4050	3.821813385287	25380
2	4060	3.835653385287	25521
2	4070	3.849493385287	25662
2	4092	3.863333385287	25803
2	4102	3.877173385287	25944
2	4134	3.904853385287	26085
2	4144	3.918693385287	26226
2	4154	3.932533385287	26367
2	4164	3.946373385287	26508
2	4195	3.960213385287	26649
2	4210	3.974053385287	26790
2	4220	3.987893385287	26931
2	4251	4.001733385287	27072
2	4258	4.015573385287	27213
2	4268	4.029413385287	27354
2	4278	4.043253385287	27495
2	4297	4.057093385287	27636
2	4307	4.070933385287	27777
2	4317	4.084773385287	27918
2	4324	4.098613385287	28059
2	4610	4.628453385287	28200
2	4620	4.642293385287	28341
2	4642	4.656133385287	28482
2	4652	4.669973385287	28623
2	4660	4.697653385287	28764
2	4691	4.711493385287	28905
2	4701	4.725333385287	29046
2	4711	4.739173385287	29187
2	4733	4.753013385287	29328
2	4743	4.766853385287	29469
2	4753	4.780693385287	29610
2	4763	4.794533385287	29751
2	4794	4.808373385287	29892
2	4804	4.822213385287	30033
2	4814	4.836053385287	30174
2	4995	5.178453385287	30315
2	5005	5.192293385287	30456
2	6056	7.251973385287	30597
2	6066	7.265813385287	30738
2	6076	7.279653385287	30879
2	6086	7.293493385287	31020
2	6117	7.307333385287	31161
2	6127	7.321173385287	31302
2	6137	7.335013385287	31443
2	6147	7.348853385287	31584
2	6187	7.362693385287	31725
2	6197	7.376533385287	31866
2	6207	7.390373385287	32007
2	6238	7.404213385287	32148
2	6248	7.418053385287	32289
2	6258	7.431893385287	32430
2	6268	7.445733385287	32571
2	6290	7.459573385287	32712
2	6300	7.473413385287	32853
2	6310	7.487253385287	32994
2	6341	7.501093385287	33135
2	6351	7.514933385287	33276
2	6361	7.528773385287	33417
2	6371	7.542613385287	33558
2	6393	7.556453385287	33699
2	6403	7.570293385287	33840
2	6413	7.584133385287	33981
2	6423	7.597973385287	34122
2	6454	7.611813385287	34263
2	6464	7.625653385287	34404
2	6474	7.639493385287	34545
2	6496	7.653333385287	34686
2	6506	7.667173385287	34827
2	6516	7.681013385287	34968
2	6526	7.694853385287	35109
2	6557	7.708693385287	35250
2	6567	7.722533385287	35391
2	6577	7.736373385287	35532
2	6603	7.750213385287	35673
2	6613	7.764053385287	35814
2	6623	7.777893385287	35955
2	6633	7.791733385287	36096
2	6664	7.805573385287	36237
2	6674	7.819413385287	36378
2	6684	7.833253385287	36519
2	6694	7.847093385287	36660
2	6717	7.874773385287	36801
2	6727	7.888613385287	36942
2	6758	7.902453385287	37083
2	6768	7.916293385287	37224
2	6778	7.930133385287	37365
2	6788	7.943973385287	37506
2	6810	7.957813385287	37647
2	6820	7.971653385287	37788
2	6830	7.985493385287	37929
2	6840	7.999333385287	38070
2	6871	8.013173385287	38211
2	6881	8.027013385287	38352
2	6891	8.040853385287	38493
2	6913	8.054693385287	38634
2	6924	8.082373385287	38775
2	6934	8.096213385287	38916
2	6965	8.110053385287	39057
2	6975	8.123893385287	39198
2	6982	8.137733385287	39339
2	7004	8.151573385287	39480
2	7014	8.165413385287	39621
2	7024	8.179253385287	39762
2	7034	8.193093385287	39903
2	7065	8.206933385287	40044
2	7075	8.220773385287	40185
2	7085	8.234613385287	40326
2	7095	8.248453385287	40467
2	7117	8.262293385287	40608
2	7124	8.276133385287	40749
2	7134	8.289973385287	40890
2	7165	8.303813385287	41031
2	7175	8.317653385287	41172
2	7185	8.331493385287	41313
2	7195	8.345333385287	41454
2	7217	8.359173385287	41595
2	7227	8.373013385287	41736
2	7237	8.386853385287	41877
2	7268	8.400693385287	42018
2	7278	8.414533385287	42159
2	7288	8.428373385287	42300
2	7298	8.442213385287	42441
2	7320	8.456053385287	42582
2	7330	8.469893385287	42723
2	7340	8.483733385287	42864
2	7350	8.497573385287	43005
2	7381	8.511413385287	43146
2	7391	8.525253385287	43287
2	7401	8.539093385287	43428
2	7423	8.552933385287	43569
2	7433	8.566773385287	43710
2	7443	8.580613385287	43851
2	7453	8.594453385287	43992
2	7484	8.608293385287	44133
2	7494	8.622133385287	44274
2	7504	8.635973385287	44415
2	7728	9.088133385287	44556
2	7759	9.101973385287	44697
2	7769	9.115813385287	44838
2	7779	9.129653385287	44979
2	7789	9.143493385287	45120
3	1032	1.142624192201	141
3	1054	1.156464192201	282
3	1064	1.170304192201	423
3	1074	1.184144192201	564
3	1084	1.197984192201	705
3	1115	1.211824192201	846
3	1125	1.225664192201	987
3	1135	1.239504192201	1128
3	1157	1.253344192201	1269
3	1167	1.267184192201	1410
3	1177	1.281024192201	1551
3	1187	1.294864192201	1692
3	1218	1.308704192201	1833
3	1228	1.322544192201	1974
3	1238	1.336384192201	2115
3	1260	1.350224192201	2256
3	1270	1.364064192201	2397
3	1280	1.377904192201	2538
3	1290	1.391744192201	2679
3	1322	1.419424192201	2820
3	1332	1.433264192201	2961
3	1342	1.447104192201	3102
3	1364	1.460944192201	3243
3	1374	1.474784192201	3384
3	1384	1.488624192201	3525
3	1412	1.502464192201	3666
3	1422	1.516304192201	3807
3	1432	1.530144192201	3948
3	1442	1.543984192201	4089
3	1464	1.557824192201	4230
3	1474	1.571664192201	4371
3	1485	1.599344192201	4512
3	1516	1.613184192201	4653
3	1526	1.627024192201	4794
3	1536	1.640864192201	4935
3	1566	1.654704192201	5076
3	1590	1.668544192201	5217
3	1600	1.682384192201	5358
3	1610	1.696224192201	5499
3	1638	1.710064192201	5640
3	1648	1.723904192201	5781
3	1658	1.737744192201	5922
3	1680	1.751584192201	6063
3	1690	1.765424192201	6204
3	1701	1.793104192201	6345
3	1732	1.806944192201	6486
3	1742	1.820784192201	6627
3	1749	1.834624192201	6768
3	1759	1.848464192201	6909
3	1781	1.862304192201	7050
3	1791	1.876144192201	7191
3	1801	1.889984192201	7332
3	1832	1.903824192201	7473
3	1842	1.917664192201	7614
3	1852	1.931504192201	7755
3	1862	1.945344192201	7896
3	1881	1.959184192201	8037
3	1891	1.973024192201	8178
3	1901	1.986864192201	8319
3	1932	2.000704192201	8460
3	1939	2.014544192201	8601
3	1949	2.028384192201	8742
3	1959	2.042224192201	8883
3	1981	2.056064192201	9024
3	1991	2.069904192201	9165
3	2001	2.083744192201	9306
3	2011	2.097584192201	9447
3	2042	2.111424192201	9588
3	2052	2.125264192201	9729
3	2062	2.139104192201	9870
3	2081	2.152944192201	10011
3	2091	2.166784192201	10152
3	2101	2.180624192201	10293
3	2111	2.194464192201	10434
3	2146	2.208304192201	10575
3	2156	2.222144192201	10716
3	2166	2.235984192201	10857
3	2176	2.249824192201	10998
3	2198	2.263664192201	11139
3	2208	2.277504192201	11280
3	2218	2.291344192201	11421
3	2249	2.305184192201	11562
3	2259	2.319024192201	11703
3	2269	2.332864192201	11844
3	2279	2.346704192201	11985
3	2301	2.360544192201	12126
3	2311	2.374384192201	12267
3	2321	2.388224192201	12408
3	2353	2.415904192201	12549
3	2363	2.429744192201	12690
3	2373	2.443584192201	12831
3	2395	2.457424192201	12972
3	2405	2.471264192201	13113
3	2415	2.485104192201	13254
3	2425	2.498944192201	13395
3	2456	2.512784192201	13536
3	2526	2.579413385287	13677
3	2536	2.593253385287	13818
3	2567	2.607093385287	13959
3	2574	2.620933385287	14100
3	2584	2.634773385287	14241
3	2594	2.648613385287	14382
3	2613	2.662453385287	14523
3	2623	2.676293385287	14664
3	2633	2.690133385287	14805
3	2668	2.703973385287	14946
3	2903	2.742293385287	15087
3	2925	2.756133385287	15228
3	2935	2.769973385287	15369
3	2945	2.783813385287	15510
3	2952	2.797653385287	15651
3	2983	2.811493385287	15792
3	2993	2.825333385287	15933
3	3003	2.839173385287	16074
3	3029	2.853013385287	16215
3	3042	2.866853385287	16356
3	3068	2.880693385287	16497
3	3078	2.894533385287	16638
3	3109	2.908373385287	16779
3	3119	2.922213385287	16920
3	3129	2.936053385287	17061
3	3139	2.949893385287	17202
3	3161	2.963733385287	17343
3	3171	2.977573385287	17484
3	3178	2.991413385287	17625
3	3209	3.005253385287	17766
3	3219	3.019093385287	17907
3	3229	3.032933385287	18048
3	3239	3.046773385287	18189
3	3261	3.060613385287	18330
3	3272	3.088293385287	18471
3	3301	3.115973385287	18612
3	3311	3.129813385287	18753
3	3321	3.143653385287	18894
3	3340	3.157493385287	19035
3	3350	3.171333385287	19176
3	3360	3.185173385287	19317
3	3370	3.199013385287	19458
3	3401	3.212853385287	19599
3	3411	3.226693385287	19740
3	3421	3.240533385287	19881
3	3447	3.254373385287	20022
3	3469	3.268213385287	20163
3	3479	3.282053385287	20304
3	3489	3.295893385287	20445
3	3520	3.309733385287	20586
3	3530	3.323573385287	20727
3	3540	3.337413385287	20868
3	3562	3.351253385287	21009
3	3569	3.365093385287	21150
3	3579	3.378933385287	21291
3	3589	3.392773385287	21432
3	3622	3.406613385287	21573
3	3644	3.420453385287	21714
3	3654	3.434293385287	21855
3	3664	3.448133385287	21996
3	3687	3.475813385287	22137
3	3697	3.489653385287	22278
3	3728	3.503493385287	22419
3	3738	3.517333385287	22560
3	3748	3.531173385287	22701
3	3771	3.558853385287	22842
3	3782	3.586533385287	22983
3	3810	3.600373385287	23124
3	3820	3.614213385287	23265
3	3830	3.628053385287	23406
3	3840	3.641893385287	23547
3	3862	3.655733385287	23688
3	3872	3.669573385287	23829
3	3882	3.683413385287	23970
3	3892	3.697253385287	24111
3	3923	3.711093385287	24252
3	3933	3.724933385287	24393
3	3943	3.738773385287	24534
3	3965	3.752613385287	24675
3	3975	3.766453385287	24816
3	3985	3.780293385287	24957
3	3995	3.794133385287	25098
3	4028	3.807973385287	25239
3	4050	3.821813385287	25380
3	4060	3.835653385287	25521
3	4070	3.849493385287	25662
3	4092	3.863333385287	25803
3	4102	3.877173385287	25944
3	4134	3.904853385287	26085
3	4144	3.918693385287	26226
3	4154	3.932533385287	26367
3	4164	3.946373385287	26508
3	4195	3.960213385287	26649
3	4210	3.974053385287	26790
3	4220	3.987893385287	26931
3	4251	4.001733385287	27072
3	4258	4.015573385287	27213
3	4268	4.029413385287	27354
3	4278	4.043253385287	27495
3	4297	4.057093385287	27636
3	4307	4.070933385287	27777
3	4317	4.084773385287	27918
3	4324	4.098613385287	28059
3	4610	4.628453385287	28200
3	4620	4.642293385287	28341
3	4642	4.656133385287	28482
3	4652	4.669973385287	28623
3	4660	4.697653385287	28764
3	4691	4.711493385287	28905
3	4701	4.725333385287	29046
3	4711	4.739173385287	29187
3	4733	4.753013385287	29328
3	4743	4.766853385287	29469
3	4753	4.780693385287	29610
3	4763	4.794533385287	29751
3	4794	4.808373385287	29892
3	4804	4.822213385287	30033
3	4814	4.836053385287	30174
3	4995	5.178453385287	30315
3	5005	5.192293385287	30456
3	6056	7.251973385287	30597
3	6066	7.265813385287	30738
3	6076	7.279653385287	30879
3	6086	7.293493385287	31020
3	6117	7.307333385287	31161
3	6127	7.321173385287	31302
3	6137	7.335013385287	31443
3	6147	7.348853385287	31584
3	6187	7.362693385287	31725
3	6197	7.376533385287	31866
3	6207	7.390373385287	32007
3	6238	7.404213385287	32148
3	6248	7.418053385287	32289
3	6258	7.431893385287	32430
3	6268	7.445733385287	32571
3	6290	7.459573385287	32712
3	6300	7.473413385287	32853
3	6310	7.487253385287	32994
3	6341	7.501093385287	33135
3	6351	7.514933385287	33276
3	6361	7.528773385287	33417
3	6371	7.542613385287	33558
3	6393	7.556453385287	33699
3	6403	7.570293385287	33840
3	6413	7.584133385287	33981
3	6423	7.597973385287	34122
3	6454	7.611813385287	34263
3	6464	7.625653385287	34404
3	6474	7.639493385287	34545
3	6496	7.653333385287	34686
3	6506	7.667173385287	34827
3	6516	7.681013385287	34968
3	6526	7.694853385287	35109
3	6557	7.708693385287	35250
3	6567	7.722533385287	35391
3	6577	7.736373385287	35532
3	6603	7.750213385287	35673
3	6613	7.764053385287	35814
3	6623	7.777893385287	35955
3	6633	7.791733385287	36096
3	6664	7.805573385287	36237
3	6674	7.819413385287	36378
3	6684	7.833253385287	36519
3	6694	7.847093385287	36660
3	6717	7.874773385287	36801
3	6727	7.888613385287	36942
3	6758	7.902453385287	37083
3	6768	7.916293385287	37224
3	6778	7.930133385287	37365
3	6788	7.943973385287	37506
3	6810	7.957813385287	37647
3	6820	7.971653385287	37788
3	6830	7.985493385287	37929
3	6840	7.999333385287	38070
3	6871	8.013173385287	38211
3	6881	8.027013385287	38352
3	6891	8.040853385287	38493
3	6913	8.054693385287	38634
3	6924	8.082373385287	38775
3	6934	8.096213385287	38916
3	6965	8.110053385287	39057
3	6975	8.123893385287	39198
3	6982	8.137733385287	39339
3	7004	8.151573385287	39480
3	7014	8.165413385287	39621
3	7024	8.179253385287	39762
3	7034	8.193093385287	39903
3	7065	8.206933385287	40044
3	7075	8.220773385287	40185
3	7085	8.234613385287	40326
3	7095	8.248453385287	40467
3	7117	8.262293385287	40608
3	7124	8.276133385287	40749
3	7134	8.289973385287	40890
3	7165	8.303813385287	41031
3	7175	8.317653385287	41172
3	7185	8.331493385287	41313
3	7195	8.345333385287	41454
3	7217	8.359173385287	41595
3	7227	8.373013385287	41736
3	7237	8.386853385287	41877
3	7268	8.400693385287	42018
3	7278	8.414533385287	42159
3	7288	8.428373385287	42300
3	7298	8.442213385287	42441
3	7320	8.456053385287	42582
3	7330	8.469893385287	42723
3	7340	8.483733385287	42864
3	7350	8.497573385287	43005
3	7381	8.511413385287	43146
3	7391	8.525253385287	43287
3	7401	8.539093385287	43428
3	7423	8.552933385287	43569
3	7433	8.566773385287	43710
3	7443	8.580613385287	43851
3	7453	8.594453385287	43992
3	7484	8.608293385287	44133
3	7494	8.622133385287	44274
3	7504	8.635973385287	44415
3	7728	9.088133385287	44556
3	7759	9.101973385287	44697
3	7769	9.115813385287	44838
3	7779	9.129653385287	44979
3	7789	9.143493385287	45120

