version 2
run A2-0-20190915-19:15:22-5113
attr configname A2
attr datetime 20190915-19:15:22
attr experiment A2
attr inifile SimV2.ini
attr iterationvars ""
attr iterationvarsf ""
attr measurement ""
attr network NetworkTormV2
attr processid 5113
attr repetition 0
attr replication #0
attr resultdir results
attr runnumber 0
attr seedset 0
param **.mobility.traceFile "\"paths/A.movements\""
param **.numNodes 3
param **.wirelessIfc.wirelessRange 40m
param **.bluetoothIfc.wirelessRange 40m
param **application.destinationAddr "\"Wf:00:00:00:00:02\""
param **application.destinationBTAddr "\"Bt:00:00:00:00:02\""
param **application.nodesThatGen true
param **application.nodesGenMsg "\"0,1\""
param **application.startMultipleMsg true
param **application.numMultipleMsg 100
param **application.hopsListSize 50
param **.numNodes 2
param **.application.usedRNG 1
param **.application.dataGenerationInterval 1ms
param **.application.dataSizeInBytes 10
param **.application.ttl 999999s
param **application.destinationAddr "\"Wf:00:00:00:00:02\""
param **application.destinationBTAddr "\"Bt:00:00:00:00:02\""
param **application.nodesThatGen true
param **application.nodesGenMsg "\"0\""
param **application.startMultipleMsg true
param **application.numMultipleMsg 100
param **application.hopsListSize 50
param **.routingLayer "\"RoutingLayer\""
param **.routing.maximumCacheSize 5000byte
param **.routing.maximumHopCount 25
param **.routing.useTTL false
param **.routing.waitBFsend 0.5
param **.routing.max_age 999999s
param **.neighboring.antiEntropyInterval 500ms
param **.neighboring.maximumRandomBackoffDuration 1s
param **.neighboring.delayPerDataMsg 0.1
param **neighboring.usedRNG 2
param **.neighboring.GWAddr "\"02:00:00:00:00:09\""
param **.neighboring.sendWifiFirst true
param **.neighboring.maxLengthGraph 20
param **.neighboring.max_age 999999s
param **.wirelessIfc.wirelessRange 15m
param **.wirelessIfc.neighbourScanInterval 50ms
param **.wirelessIfc.bandwidthBitRate 100000bps
param **.wirelessIfc.wirelessHeaderSize 32byte
param **.wirelessIfc.minSSI -90
param **.bluetoothIfc.wirelessRange 15m
param **.bluetoothIfc.neighbourScanInterval 100ms
param **.bluetoothIfc.bandwidthBitRate 100000bps
param **.bluetoothIfc.wirelessHeaderSize 16byte
param **.bluetoothIfc.minSSI -90
param **.mobilityType "\"BonnMotionMobility\""
param **.mobility.traceFile "\"paths/Moves2.movements\""
param **.mobility.is3D false
param **.mobility.nodeId -1

vector 0 NetworkTormV2 neighbourhoodSize:vector ETV
attr source neighbourhoodSize
vector 1 NetworkTormV2 deliveryRatio:vector ETV
attr source sum(totalDataBytesReceived)/sum(totalDataBytesReceivableByAllNodes)
vector 2 NetworkTormV2 dataBytesReceivedSum:vector ETV
attr source sum(dataBytesReceived)
vector 3 NetworkTormV2 totalBytesReceivedSum:vector ETV
attr source sum(totalBytesReceived)
0	10	0.05	1
0	11	0.05	2
0	12	0.05	1
0	20	0.1	1
0	22	0.1	2
0	23	0.1	1
0	24	0.1	1
0	25	0.1	2
0	26	0.1	1
0	237	0.15	1
0	238	0.15	2
0	239	0.15	1
0	446	0.2	1
0	447	0.2	2
0	448	0.2	1
0	449	0.2	1
0	450	0.2	2
0	451	0.2	1
0	464	0.25	1
0	465	0.25	2
0	466	0.25	1
0	473	0.3	1
0	474	0.3	2
0	475	0.3	1
0	476	0.3	1
0	477	0.3	2
0	478	0.3	1
0	491	0.35	1
0	492	0.35	2
0	493	0.35	1
0	500	0.4	1
0	501	0.4	2
0	502	0.4	1
0	503	0.4	1
0	504	0.4	2
0	505	0.4	1
0	518	0.45	1
0	519	0.45	2
0	520	0.45	1
0	527	0.5	1
0	528	0.5	2
0	529	0.5	1
0	530	0.5	1
0	531	0.5	2
0	532	0.5	1
0	545	0.55	1
0	546	0.55	2
0	547	0.55	1
0	554	0.6	1
0	555	0.6	2
0	556	0.6	1
0	557	0.6	1
0	558	0.6	2
0	559	0.6	1
0	572	0.65	1
0	573	0.65	2
0	574	0.65	1
0	581	0.7	1
0	582	0.7	2
0	583	0.7	1
0	584	0.7	1
0	585	0.7	2
0	586	0.7	1
0	599	0.75	1
0	600	0.75	2
0	601	0.75	1
0	608	0.8	1
0	609	0.8	2
0	610	0.8	1
0	611	0.8	1
0	612	0.8	2
0	613	0.8	1
0	626	0.85	1
0	627	0.85	2
0	628	0.85	1
0	635	0.9	1
0	636	0.9	2
0	637	0.9	1
0	638	0.9	1
0	639	0.9	2
0	640	0.9	1
0	653	0.95	1
0	654	0.95	2
0	655	0.95	1
0	662	1	1
0	663	1	2
0	664	1	1
0	665	1	1
0	666	1	2
0	667	1	1
0	680	1.05	1
0	681	1.05	2
0	682	1.05	1
0	689	1.1	1
0	690	1.1	2
0	691	1.1	1
0	692	1.1	1
0	693	1.1	2
0	694	1.1	1
0	969	1.15	1
0	970	1.15	2
0	971	1.15	1
0	1014	1.2	1
0	1015	1.2	2
0	1016	1.2	1
0	1017	1.2	1
0	1018	1.2	2
0	1019	1.2	1
0	1066	1.25	1
0	1067	1.25	2
0	1068	1.25	1
0	1115	1.3	1
0	1116	1.3	2
0	1117	1.3	1
0	1118	1.3	1
0	1119	1.3	2
0	1120	1.3	1
0	1163	1.35	1
0	1164	1.35	2
0	1165	1.35	1
0	1212	1.4	1
0	1213	1.4	2
0	1214	1.4	1
0	1215	1.4	1
0	1216	1.4	2
0	1217	1.4	1
0	1261	1.45	1
0	1262	1.45	2
0	1263	1.45	1
0	1297	1.5	1
0	1298	1.5	2
0	1299	1.5	1
0	1300	1.5	1
0	1301	1.5	2
0	1302	1.5	1
0	1355	1.55	1
0	1356	1.55	2
0	1357	1.55	1
0	1391	1.6	1
0	1392	1.6	2
0	1393	1.6	1
0	1394	1.6	1
0	1395	1.6	2
0	1396	1.6	1
0	1443	1.65	1
0	1444	1.65	2
0	1445	1.65	1
0	1511	1.7	1
0	1512	1.7	2
0	1513	1.7	1
0	1514	1.7	1
0	1515	1.7	2
0	1516	1.7	1
0	1559	1.75	1
0	1560	1.75	2
0	1561	1.75	1
0	1599	1.8	1
0	1600	1.8	2
0	1601	1.8	1
0	1602	1.8	1
0	1603	1.8	2
0	1604	1.8	1
0	1650	1.85	1
0	1651	1.85	2
0	1652	1.85	1
0	1693	1.9	1
0	1694	1.9	2
0	1695	1.9	1
0	1696	1.9	1
0	1697	1.9	2
0	1698	1.9	1
0	1748	1.95	1
0	1749	1.95	2
0	1750	1.95	1
0	1787	2	1
0	1788	2	2
0	1789	2	1
0	1790	2	1
0	1791	2	2
0	1792	2	1
0	1842	2.05	1
0	1843	2.05	2
0	1844	2.05	1
0	1887	2.1	1
0	1888	2.1	2
0	1889	2.1	1
0	1890	2.1	1
0	1891	2.1	2
0	1892	2.1	1
0	1936	2.15	1
0	1937	2.15	2
0	1938	2.15	1
0	1985	2.2	1
0	1986	2.2	2
0	1987	2.2	1
0	1988	2.2	1
0	1989	2.2	2
0	1990	2.2	1
0	2043	2.25	1
0	2044	2.25	2
0	2045	2.25	1
0	2086	2.3	1
0	2087	2.3	2
0	2088	2.3	1
0	2089	2.3	1
0	2090	2.3	2
0	2091	2.3	1
0	2144	2.35	1
0	2145	2.35	2
0	2146	2.35	1
0	2183	2.4	1
0	2184	2.4	2
0	2185	2.4	1
0	2186	2.4	1
0	2187	2.4	2
0	2188	2.4	1
0	2232	2.45	1
0	2233	2.45	2
0	2234	2.45	1
0	2277	2.5	1
0	2278	2.5	2
0	2279	2.5	1
0	2280	2.5	1
0	2281	2.5	2
0	2282	2.5	1
0	2559	2.55	1
0	2560	2.55	2
0	2561	2.55	1
0	2622	2.6	1
0	2623	2.6	2
0	2624	2.6	1
0	2625	2.6	1
0	2626	2.6	2
0	2627	2.6	1
0	2699	2.65	1
0	2700	2.65	2
0	2701	2.65	1
0	2759	2.7	1
0	2760	2.7	2
0	2761	2.7	1
0	2762	2.7	1
0	2763	2.7	2
0	2764	2.7	1
0	2872	2.75	1
0	2873	2.75	2
0	2874	2.75	1
0	2917	2.8	1
0	2918	2.8	2
0	2919	2.8	1
0	2920	2.8	1
0	2921	2.8	2
0	2922	2.8	1
0	2960	2.85	1
0	2961	2.85	2
0	2962	2.85	1
0	3013	2.9	1
0	3014	2.9	2
0	3015	2.9	1
0	3016	2.9	1
0	3017	2.9	2
0	3018	2.9	1
0	3049	2.95	1
0	3050	2.95	2
0	3051	2.95	1
0	3095	3	1
0	3096	3	2
0	3097	3	1
0	3098	3	1
0	3099	3	2
0	3100	3	1
0	3149	3.05	1
0	3150	3.05	2
0	3151	3.05	1
0	3192	3.1	1
0	3193	3.1	2
0	3194	3.1	1
0	3195	3.1	1
0	3196	3.1	2
0	3197	3.1	1
0	3250	3.15	1
0	3251	3.15	2
0	3252	3.15	1
0	3286	3.2	1
0	3287	3.2	2
0	3288	3.2	1
0	3289	3.2	1
0	3290	3.2	2
0	3291	3.2	1
0	3344	3.25	1
0	3345	3.25	2
0	3346	3.25	1
0	3397	3.3	1
0	3398	3.3	2
0	3399	3.3	1
0	3400	3.3	1
0	3401	3.3	2
0	3402	3.3	1
0	3445	3.35	1
0	3446	3.35	2
0	3447	3.35	1
0	3485	3.4	1
0	3486	3.4	2
0	3487	3.4	1
0	3488	3.4	1
0	3489	3.4	2
0	3490	3.4	1
0	3534	3.45	1
0	3535	3.45	2
0	3536	3.45	1
0	3583	3.5	1
0	3584	3.5	2
0	3585	3.5	1
0	3586	3.5	1
0	3587	3.5	2
0	3588	3.5	1
0	3641	3.55	1
0	3642	3.55	2
0	3643	3.55	1
0	3680	3.6	1
0	3681	3.6	2
0	3682	3.6	1
0	3683	3.6	1
0	3684	3.6	2
0	3685	3.6	1
0	3738	3.65	1
0	3739	3.65	2
0	3740	3.65	1
0	3783	3.7	1
0	3784	3.7	2
0	3785	3.7	1
0	3786	3.7	1
0	3787	3.7	2
0	3788	3.7	1
0	3826	3.75	1
0	3827	3.75	2
0	3828	3.75	1
0	3875	3.8	1
0	3876	3.8	2
0	3877	3.8	1
0	3878	3.8	1
0	3879	3.8	2
0	3880	3.8	1
0	3936	3.85	1
0	3937	3.85	2
0	3938	3.85	1
0	3982	3.9	1
0	3983	3.9	2
0	3984	3.9	1
0	3985	3.9	1
0	3986	3.9	2
0	3987	3.9	1
0	4066	3.95	1
0	4067	3.95	2
0	4068	3.95	1
0	4130	4	1
0	4131	4	2
0	4132	4	1
0	4133	4	1
0	4134	4	2
0	4135	4	1
0	4166	4.05	1
0	4167	4.05	2
0	4168	4.05	1
0	4215	4.1	1
0	4216	4.1	2
0	4217	4.1	1
0	4218	4.1	1
0	4219	4.1	2
0	4220	4.1	1
0	4269	4.15	1
0	4270	4.15	2
0	4271	4.15	1
0	4317	4.2	1
0	4318	4.2	2
0	4319	4.2	1
0	4320	4.2	1
0	4321	4.2	2
0	4322	4.2	1
0	4335	4.25	1
0	4336	4.25	2
0	4337	4.25	1
0	4344	4.3	1
0	4345	4.3	2
0	4346	4.3	1
0	4347	4.3	1
0	4348	4.3	2
0	4349	4.3	1
0	4362	4.35	1
0	4363	4.35	2
0	4364	4.35	1
0	4397	4.4	1
0	4398	4.4	2
0	4399	4.4	1
0	4400	4.4	1
0	4401	4.4	2
0	4402	4.4	1
0	4415	4.45	1
0	4416	4.45	2
0	4417	4.45	1
0	4424	4.5	1
0	4425	4.5	2
0	4426	4.5	1
0	4427	4.5	1
0	4428	4.5	2
0	4429	4.5	1
0	4468	4.55	1
0	4469	4.55	2
0	4470	4.55	1
0	4477	4.6	1
0	4478	4.6	2
0	4479	4.6	1
0	4480	4.6	1
0	4481	4.6	2
0	4482	4.6	1
0	4495	4.65	1
0	4496	4.65	2
0	4497	4.65	1
0	4504	4.7	1
0	4505	4.7	2
0	4506	4.7	1
0	4507	4.7	1
0	4508	4.7	2
0	4509	4.7	1
0	4522	4.75	1
0	4523	4.75	2
0	4524	4.75	1
0	4531	4.8	1
0	4532	4.8	2
0	4533	4.8	1
0	4534	4.8	1
0	4535	4.8	2
0	4536	4.8	1
0	4549	4.85	1
0	4550	4.85	2
0	4551	4.85	1
0	4558	4.9	1
0	4559	4.9	2
0	4560	4.9	1
0	4561	4.9	1
0	4562	4.9	2
0	4563	4.9	1
0	4602	4.95	1
0	4603	4.95	2
0	4604	4.95	1
0	4611	5	1
0	4612	5	2
0	4613	5	1
0	4614	5	1
0	4615	5	2
0	4616	5	1
0	4629	5.05	1
0	4630	5.05	2
0	4631	5.05	1
0	4878	5.1	1
0	4879	5.1	2
0	4880	5.1	1
0	4881	5.1	1
0	4882	5.1	2
0	4883	5.1	1
0	4932	5.15	1
0	4933	5.15	2
0	4934	5.15	1
0	4975	5.2	1
0	4976	5.2	2
0	4977	5.2	1
0	4978	5.2	1
0	4979	5.2	2
0	4980	5.2	1
0	5024	5.25	1
0	5025	5.25	2
0	5026	5.25	1
0	5069	5.3	1
0	5070	5.3	2
0	5071	5.3	1
0	5072	5.3	1
0	5073	5.3	2
0	5074	5.3	1
0	5121	5.35	1
0	5122	5.35	2
0	5123	5.35	1
0	5170	5.4	1
0	5171	5.4	2
0	5172	5.4	1
0	5173	5.4	1
0	5174	5.4	2
0	5175	5.4	1
0	5218	5.45	1
0	5219	5.45	2
0	5220	5.45	1
0	5276	5.5	1
0	5277	5.5	2
0	5278	5.5	1
0	5279	5.5	1
0	5280	5.5	2
0	5281	5.5	1
0	5330	5.55	1
0	5331	5.55	2
0	5332	5.55	1
0	5373	5.6	1
0	5374	5.6	2
0	5375	5.6	1
0	5376	5.6	1
0	5377	5.6	2
0	5378	5.6	1
0	5433	5.65	1
0	5434	5.65	2
0	5435	5.65	1
0	5472	5.7	1
0	5473	5.7	2
0	5474	5.7	1
0	5475	5.7	1
0	5476	5.7	2
0	5477	5.7	1
0	5530	5.75	1
0	5531	5.75	2
0	5532	5.75	1
0	5575	5.8	1
0	5576	5.8	2
0	5577	5.8	1
0	5578	5.8	1
0	5579	5.8	2
0	5580	5.8	1
0	5624	5.85	1
0	5625	5.85	2
0	5626	5.85	1
0	5673	5.9	1
0	5674	5.9	2
0	5675	5.9	1
0	5676	5.9	1
0	5677	5.9	2
0	5678	5.9	1
0	5721	5.95	1
0	5722	5.95	2
0	5723	5.95	1
0	5770	6	1
0	5771	6	2
0	5772	6	1
0	5773	6	1
0	5774	6	2
0	5775	6	1
0	5819	6.05	1
0	5820	6.05	2
0	5821	6.05	1
0	5855	6.1	1
0	5856	6.1	2
0	5857	6.1	1
0	5858	6.1	1
0	5859	6.1	2
0	5860	6.1	1
0	5913	6.15	1
0	5914	6.15	2
0	5915	6.15	1
0	5958	6.2	1
0	5959	6.2	2
0	5960	6.2	1
0	5961	6.2	1
0	5962	6.2	2
0	5963	6.2	1
0	6007	6.25	1
0	6008	6.25	2
0	6009	6.25	1
0	6056	6.3	1
0	6057	6.3	2
0	6058	6.3	1
0	6059	6.3	1
0	6060	6.3	2
0	6061	6.3	1
0	6104	6.35	1
0	6105	6.35	2
0	6106	6.35	1
0	6153	6.4	1
0	6154	6.4	2
0	6155	6.4	1
0	6156	6.4	1
0	6157	6.4	2
0	6158	6.4	1
0	6207	6.45	1
0	6208	6.45	2
0	6209	6.45	1
0	6265	6.5	1
0	6266	6.5	2
0	6267	6.5	1
0	6268	6.5	1
0	6269	6.5	2
0	6270	6.5	1
0	6315	6.55	1
0	6316	6.55	2
0	6317	6.55	1
0	6355	6.6	1
0	6356	6.6	2
0	6357	6.6	1
0	6358	6.6	1
0	6359	6.6	2
0	6360	6.6	1
0	6386	6.65	1
0	6387	6.65	2
0	6388	6.65	1
0	6395	6.7	1
0	6396	6.7	2
0	6397	6.7	1
0	6398	6.7	1
0	6399	6.7	2
0	6400	6.7	1
0	6426	6.75	1
0	6427	6.75	2
0	6428	6.75	1
0	6448	6.8	1
0	6449	6.8	2
0	6450	6.8	1
0	6451	6.8	1
0	6452	6.8	2
0	6453	6.8	1
0	6466	6.85	1
0	6467	6.85	2
0	6468	6.85	1
0	6475	6.9	1
0	6476	6.9	2
0	6477	6.9	1
0	6478	6.9	1
0	6479	6.9	2
0	6480	6.9	1
0	6493	6.95	1
0	6494	6.95	2
0	6495	6.95	1
0	6502	7	1
0	6503	7	2
0	6504	7	1
0	6505	7	1
0	6506	7	2
0	6507	7	1
0	6520	7.05	1
0	6521	7.05	2
0	6522	7.05	1
0	6542	7.1	1
0	6543	7.1	2
0	6544	7.1	1
0	6545	7.1	1
0	6546	7.1	2
0	6547	7.1	1
0	6560	7.15	1
0	6561	7.15	2
0	6562	7.15	1
0	6582	7.2	1
0	6583	7.2	2
0	6584	7.2	1
0	6585	7.2	1
0	6586	7.2	2
0	6587	7.2	1
0	6600	7.25	1
0	6601	7.25	2
0	6602	7.25	1
0	6622	7.3	1
0	6623	7.3	2
0	6624	7.3	1
0	6625	7.3	1
0	6626	7.3	2
0	6627	7.3	1
0	6653	7.35	1
0	6654	7.35	2
0	6655	7.35	1
0	6662	7.4	1
0	6663	7.4	2
0	6664	7.4	1
0	6665	7.4	1
0	6666	7.4	2
0	6667	7.4	1
0	6680	7.45	1
0	6681	7.45	2
0	6682	7.45	1
0	6689	7.5	1
0	6690	7.5	2
0	6691	7.5	1
0	6692	7.5	1
0	6693	7.5	2
0	6694	7.5	1
0	6707	7.55	1
0	6708	7.55	2
0	6709	7.55	1
0	6716	7.6	1
0	6717	7.6	2
0	6718	7.6	1
0	6719	7.6	1
0	6720	7.6	2
0	6721	7.6	1
0	6747	7.65	1
0	6748	7.65	2
0	6749	7.65	1
0	6756	7.7	1
0	6757	7.7	2
0	6758	7.7	1
0	6759	7.7	1
0	6760	7.7	2
0	6761	7.7	1
0	6787	7.75	1
0	6788	7.75	2
0	6789	7.75	1
0	6796	7.8	1
0	6797	7.8	2
0	6798	7.8	1
0	6799	7.8	1
0	6800	7.8	2
0	6801	7.8	1
0	6827	7.85	1
0	6828	7.85	2
0	6829	7.85	1
0	6849	7.9	1
0	6850	7.9	2
0	6851	7.9	1
0	6852	7.9	1
0	6853	7.9	2
0	6854	7.9	1
0	6867	7.95	1
0	6868	7.95	2
0	6869	7.95	1
0	6876	8	1
0	6877	8	2
0	6878	8	1
0	6879	8	1
0	6880	8	2
0	6881	8	1
0	6894	8.05	1
0	6895	8.05	2
0	6896	8.05	1
0	6903	8.1	1
0	6904	8.1	2
0	6905	8.1	1
0	6906	8.1	1
0	6907	8.1	2
0	6908	8.1	1
0	6921	8.15	1
0	6922	8.15	2
0	6923	8.15	1
0	6943	8.2	1
0	6944	8.2	2
0	6945	8.2	1
0	6946	8.2	1
0	6947	8.2	2
0	6948	8.2	1
0	6961	8.25	1
0	6962	8.25	2
0	6963	8.25	1
0	6983	8.3	1
0	6984	8.3	2
0	6985	8.3	1
0	6986	8.3	1
0	6987	8.3	2
0	6988	8.3	1
0	7001	8.35	1
0	7002	8.35	2
0	7003	8.35	1
0	7023	8.4	1
0	7024	8.4	2
0	7025	8.4	1
0	7026	8.4	1
0	7027	8.4	2
0	7028	8.4	1
0	7054	8.45	1
0	7055	8.45	2
0	7056	8.45	1
0	7063	8.5	1
0	7064	8.5	2
0	7065	8.5	1
0	7066	8.5	1
0	7067	8.5	2
0	7068	8.5	1
0	7081	8.55	1
0	7082	8.55	2
0	7083	8.55	1
0	7090	8.6	1
0	7091	8.6	2
0	7092	8.6	1
0	7093	8.6	1
0	7094	8.6	2
0	7095	8.6	1
0	7108	8.65	1
0	7109	8.65	2
0	7110	8.65	1
0	7117	8.7	1
0	7118	8.7	2
0	7119	8.7	1
0	7120	8.7	1
0	7121	8.7	2
0	7122	8.7	1
0	7138	8.75	1
0	7139	8.75	2
0	7140	8.75	1
0	7147	8.8	1
0	7148	8.8	2
0	7149	8.8	1
0	7150	8.8	1
0	7151	8.8	2
0	7152	8.8	1
0	7178	8.85	1
0	7179	8.85	2
0	7180	8.85	1
0	7187	8.9	1
0	7188	8.9	2
0	7189	8.9	1
0	7190	8.9	1
0	7191	8.9	2
0	7192	8.9	1
0	7205	8.95	1
0	7206	8.95	2
0	7207	8.95	1
0	7227	9	1
0	7228	9	2
0	7229	9	1
0	7230	9	1
0	7231	9	2
0	7232	9	1
0	7245	9.05	1
0	7246	9.05	2
0	7247	9.05	1
0	7254	9.1	1
0	7255	9.1	2
0	7256	9.1	1
0	7257	9.1	1
0	7258	9.1	2
0	7259	9.1	1
0	7272	9.15	1
0	7273	9.15	2
0	7274	9.15	1
0	7281	9.2	1
0	7282	9.2	2
0	7283	9.2	1
0	7284	9.2	1
0	7285	9.2	2
0	7286	9.2	1
0	7299	9.25	1
0	7300	9.25	2
0	7301	9.25	1
0	7308	9.3	1
0	7309	9.3	2
0	7310	9.3	1
0	7311	9.3	1
0	7312	9.3	2
0	7313	9.3	1
0	7326	9.35	1
0	7327	9.35	2
0	7328	9.35	1
0	7348	9.4	1
0	7349	9.4	2
0	7350	9.4	1
0	7351	9.4	1
0	7352	9.4	2
0	7353	9.4	1
0	7366	9.45	1
0	7367	9.45	2
0	7368	9.45	1
0	7375	9.5	1
0	7376	9.5	2
0	7377	9.5	1
0	7378	9.5	1
0	7379	9.5	2
0	7380	9.5	1
0	7403	9.55	1
0	7404	9.55	2
0	7405	9.55	1
0	7412	9.6	1
0	7413	9.6	2
0	7414	9.6	1
0	7415	9.6	1
0	7416	9.6	2
0	7417	9.6	1
0	7430	9.65	1
0	7431	9.65	2
0	7432	9.65	1
0	7439	9.7	1
0	7440	9.7	2
0	7441	9.7	1
0	7442	9.7	1
0	7443	9.7	2
0	7444	9.7	1
0	7457	9.75	1
0	7458	9.75	2
0	7459	9.75	1
0	7466	9.8	1
0	7467	9.8	2
0	7468	9.8	1
0	7469	9.8	1
0	7470	9.8	2
0	7471	9.8	1
0	7484	9.85	1
0	7485	9.85	2
0	7486	9.85	1
0	7493	9.9	1
0	7494	9.9	2
0	7495	9.9	1
0	7496	9.9	1
0	7497	9.9	2
0	7498	9.9	1
0	7524	9.95	1
0	7525	9.95	2
0	7526	9.95	1
0	7546	10	1
0	7547	10	2
0	7548	10	1
0	7549	10	1
0	7550	10	2
0	7551	10	1
0	7564	10.05	1
0	7565	10.05	2
0	7566	10.05	1
0	7586	10.1	1
0	7587	10.1	2
0	7588	10.1	1
0	7589	10.1	1
0	7590	10.1	2
0	7591	10.1	1
0	7617	10.15	1
0	7618	10.15	2
0	7619	10.15	1
0	7626	10.2	1
0	7627	10.2	2
0	7628	10.2	1
0	7629	10.2	1
0	7630	10.2	2
0	7631	10.2	1
0	7644	10.25	1
0	7645	10.25	2
0	7646	10.25	1
0	7653	10.3	1
0	7654	10.3	2
0	7655	10.3	1
0	7656	10.3	1
0	7657	10.3	2
0	7658	10.3	1
0	7671	10.35	1
0	7672	10.35	2
0	7673	10.35	1
0	7680	10.4	1
0	7681	10.4	2
0	7682	10.4	1
0	7683	10.4	1
0	7684	10.4	2
0	7685	10.4	1
0	7698	10.45	1
0	7699	10.45	2
0	7700	10.45	1
0	7720	10.5	1
0	7721	10.5	2
0	7722	10.5	1
0	7723	10.5	1
0	7724	10.5	2
0	7725	10.5	1
0	7741	10.55	1
0	7742	10.55	2
0	7743	10.55	1
0	7750	10.6	1
0	7751	10.6	2
0	7752	10.6	1
0	7753	10.6	1
0	7754	10.6	2
0	7755	10.6	1
0	7781	10.65	1
0	7782	10.65	2
0	7783	10.65	1
0	7790	10.7	1
0	7791	10.7	2
0	7792	10.7	1
0	7793	10.7	1
0	7794	10.7	2
0	7795	10.7	1
0	7808	10.75	1
0	7809	10.75	2
0	7810	10.75	1
0	7817	10.8	1
0	7818	10.8	2
0	7819	10.8	1
0	7820	10.8	1
0	7821	10.8	2
0	7822	10.8	1
0	7835	10.85	1
0	7836	10.85	2
0	7837	10.85	1
0	7844	10.9	1
0	7845	10.9	2
0	7846	10.9	1
0	7847	10.9	1
0	7848	10.9	2
0	7849	10.9	1
0	7862	10.95	1
0	7863	10.95	2
0	7864	10.95	1
0	7871	11	1
0	7872	11	2
0	7873	11	1
0	7874	11	1
0	7875	11	2
0	7876	11	1
0	7902	11.05	1
0	7903	11.05	2
0	7904	11.05	1
0	7911	11.1	1
0	7912	11.1	2
0	7913	11.1	1
0	7914	11.1	1
0	7915	11.1	2
0	7916	11.1	1
0	7929	11.15	1
0	7930	11.15	2
0	7931	11.15	1
0	7951	11.2	1
0	7952	11.2	2
0	7953	11.2	1
0	7954	11.2	1
0	7955	11.2	2
0	7956	11.2	1
0	7969	11.25	1
0	7970	11.25	2
0	7971	11.25	1
0	7978	11.3	1
0	7979	11.3	2
0	7980	11.3	1
0	7981	11.3	1
0	7982	11.3	2
0	7983	11.3	1
0	7996	11.35	1
0	7997	11.35	2
0	7998	11.35	1
0	8005	11.4	1
0	8006	11.4	2
0	8007	11.4	1
0	8008	11.4	1
0	8009	11.4	2
0	8010	11.4	1
0	8023	11.45	1
0	8024	11.45	2
0	8025	11.45	1
0	8032	11.5	1
0	8033	11.5	2
0	8034	11.5	1
0	8035	11.5	1
0	8036	11.5	2
0	8037	11.5	1
0	8050	11.55	1
0	8051	11.55	2
0	8052	11.55	1
0	8072	11.6	1
0	8073	11.6	2
0	8074	11.6	1
0	8075	11.6	1
0	8076	11.6	2
0	8077	11.6	1
0	8090	11.65	1
0	8091	11.65	2
0	8092	11.65	1
0	8099	11.7	1
0	8100	11.7	2
0	8101	11.7	1
0	8102	11.7	1
0	8103	11.7	2
0	8104	11.7	1
0	8133	11.75	1
0	8134	11.75	2
0	8135	11.75	1
0	8142	11.8	1
0	8143	11.8	2
0	8144	11.8	1
0	8145	11.8	1
0	8146	11.8	2
0	8147	11.8	1
0	8160	11.85	1
0	8161	11.85	2
0	8162	11.85	1
0	8182	11.9	1
0	8183	11.9	2
0	8184	11.9	1
0	8185	11.9	1
0	8186	11.9	2
0	8187	11.9	1
0	8200	11.95	1
0	8201	11.95	2
0	8202	11.95	1
0	8209	12	1
0	8210	12	2
0	8211	12	1
0	8212	12	1
0	8213	12	2
0	8214	12	1
0	8227	12.05	1
0	8228	12.05	2
0	8229	12.05	1
0	8236	12.1	1
0	8237	12.1	2
0	8238	12.1	1
0	8239	12.1	1
0	8240	12.1	2
0	8241	12.1	1
0	8254	12.15	1
0	8255	12.15	2
0	8256	12.15	1
0	8263	12.2	1
0	8264	12.2	2
0	8265	12.2	1
0	8266	12.2	1
0	8267	12.2	2
0	8268	12.2	1
0	8281	12.25	1
0	8282	12.25	2
0	8283	12.25	1
0	8303	12.3	1
0	8304	12.3	2
0	8305	12.3	1
0	8306	12.3	1
0	8307	12.3	2
0	8308	12.3	1
0	8321	12.35	1
0	8322	12.35	2
0	8323	12.35	1
0	8330	12.4	1
0	8331	12.4	2
0	8332	12.4	1
0	8333	12.4	1
0	8334	12.4	2
0	8335	12.4	1
0	8361	12.45	1
0	8362	12.45	2
0	8363	12.45	1
0	8370	12.5	1
0	8371	12.5	2
0	8372	12.5	1
0	8373	12.5	1
0	8374	12.5	2
0	8375	12.5	1
0	8388	12.55	1
0	8389	12.55	2
0	8390	12.55	1
0	8397	12.6	1
0	8398	12.6	2
0	8399	12.6	1
0	8400	12.6	1
0	8401	12.6	2
0	8402	12.6	1
0	8415	12.65	1
0	8416	12.65	2
0	8417	12.65	1
0	8424	12.7	1
0	8425	12.7	2
0	8426	12.7	1
0	8427	12.7	1
0	8428	12.7	2
0	8429	12.7	1
0	8442	12.75	1
0	8443	12.75	2
0	8444	12.75	1
0	8451	12.8	1
0	8452	12.8	2
0	8453	12.8	1
0	8454	12.8	1
0	8455	12.8	2
0	8456	12.8	1
0	8482	12.85	1
0	8483	12.85	2
0	8484	12.85	1
0	8491	12.9	1
0	8492	12.9	2
0	8493	12.9	1
0	8494	12.9	1
0	8495	12.9	2
0	8496	12.9	1
0	8509	12.95	1
0	8510	12.95	2
0	8511	12.95	1
0	8531	13	1
0	8532	13	2
0	8533	13	1
0	8534	13	1
0	8535	13	2
0	8536	13	1
0	8549	13.05	1
0	8550	13.05	2
0	8551	13.05	1
0	8558	13.1	1
0	8559	13.1	2
0	8560	13.1	1
0	8561	13.1	1
0	8562	13.1	2
0	8563	13.1	1
0	8576	13.15	1
0	8577	13.15	2
0	8578	13.15	1
0	8598	13.2	1
0	8599	13.2	2
0	8600	13.2	1
0	8601	13.2	1
0	8602	13.2	2
0	8603	13.2	1
0	8616	13.25	1
0	8617	13.25	2
0	8618	13.25	1
0	8625	13.3	1
0	8626	13.3	2
0	8627	13.3	1
0	8628	13.3	1
0	8629	13.3	2
0	8630	13.3	1
0	8656	13.35	1
0	8657	13.35	2
0	8658	13.35	1
0	8678	13.4	1
0	8679	13.4	2
0	8680	13.4	1
0	8681	13.4	1
0	8682	13.4	2
0	8683	13.4	1
0	8696	13.45	1
0	8697	13.45	2
0	8698	13.45	1
0	8705	13.5	1
0	8706	13.5	2
0	8707	13.5	1
0	8708	13.5	1
0	8709	13.5	2
0	8710	13.5	1
0	8733	13.55	1
0	8734	13.55	2
0	8735	13.55	1
0	8742	13.6	1
0	8743	13.6	2
0	8744	13.6	1
0	8745	13.6	1
0	8746	13.6	2
0	8747	13.6	1
0	8760	13.65	1
0	8761	13.65	2
0	8762	13.65	1
0	8769	13.7	1
0	8770	13.7	2
0	8771	13.7	1
0	8772	13.7	1
0	8773	13.7	2
0	8774	13.7	1
0	8800	13.75	1
0	8801	13.75	2
0	8802	13.75	1
0	8809	13.8	1
0	8810	13.8	2
0	8811	13.8	1
0	8812	13.8	1
0	8813	13.8	2
0	8814	13.8	1
0	8827	13.85	1
0	8828	13.85	2
0	8829	13.85	1
0	8849	13.9	1
0	8850	13.9	2
0	8851	13.9	1
0	8852	13.9	1
0	8853	13.9	2
0	8854	13.9	1
0	8880	13.95	1
0	8881	13.95	2
0	8882	13.95	1
0	8889	14	1
0	8890	14	2
0	8891	14	1
0	8892	14	1
0	8893	14	2
0	8894	14	1
0	8907	14.05	1
0	8908	14.05	2
0	8909	14.05	1
0	8929	14.1	1
0	8930	14.1	2
0	8931	14.1	1
0	8932	14.1	1
0	8933	14.1	2
0	8934	14.1	1
0	8947	14.15	1
0	8948	14.15	2
0	8949	14.15	1
0	8956	14.2	1
0	8957	14.2	2
0	8958	14.2	1
0	8959	14.2	1
0	8960	14.2	2
0	8961	14.2	1
0	8974	14.25	1
0	8975	14.25	2
0	8976	14.25	1
0	8996	14.3	1
0	8997	14.3	2
0	8998	14.3	1
0	8999	14.3	1
0	9000	14.3	2
0	9001	14.3	1
0	9014	14.35	1
0	9015	14.35	2
0	9016	14.35	1
0	9023	14.4	1
0	9024	14.4	2
0	9025	14.4	1
0	9026	14.4	1
0	9027	14.4	2
0	9028	14.4	1
0	9054	14.45	1
0	9055	14.45	2
0	9056	14.45	1
0	9076	14.5	1
0	9077	14.5	2
0	9078	14.5	1
0	9079	14.5	1
0	9080	14.5	2
0	9081	14.5	1
0	9094	14.55	1
0	9095	14.55	2
0	9096	14.55	1
0	9103	14.6	1
0	9104	14.6	2
0	9105	14.6	1
0	9106	14.6	1
0	9107	14.6	2
0	9108	14.6	1
0	9134	14.65	1
0	9135	14.65	2
0	9136	14.65	1
0	9143	14.7	1
0	9144	14.7	2
0	9145	14.7	1
0	9146	14.7	1
0	9147	14.7	2
0	9148	14.7	1
0	9161	14.75	1
0	9162	14.75	2
0	9163	14.75	1
0	9170	14.8	1
0	9171	14.8	2
0	9172	14.8	1
0	9173	14.8	1
0	9174	14.8	2
0	9175	14.8	1
0	9201	14.85	1
0	9202	14.85	2
0	9203	14.85	1
0	9210	14.9	1
0	9211	14.9	2
0	9212	14.9	1
0	9213	14.9	1
0	9214	14.9	2
0	9215	14.9	1
0	9228	14.95	1
0	9229	14.95	2
0	9230	14.95	1
0	9250	15	1
0	9251	15	2
0	9252	15	1
0	9253	15	1
0	9254	15	2
0	9255	15	1
0	9281	15.05	1
0	9282	15.05	2
0	9283	15.05	1
0	9290	15.1	1
0	9291	15.1	2
0	9292	15.1	1
0	9293	15.1	1
0	9294	15.1	2
0	9295	15.1	1
0	9308	15.15	1
0	9309	15.15	2
0	9310	15.15	1
0	9330	15.2	1
0	9331	15.2	2
0	9332	15.2	1
0	9333	15.2	1
0	9334	15.2	2
0	9335	15.2	1
0	9348	15.25	1
0	9349	15.25	2
0	9350	15.25	1
0	9357	15.3	1
0	9358	15.3	2
0	9359	15.3	1
0	9360	15.3	1
0	9361	15.3	2
0	9362	15.3	1
0	9375	15.35	1
0	9376	15.35	2
0	9377	15.35	1
0	9397	15.4	1
0	9398	15.4	2
0	9399	15.4	1
0	9400	15.4	1
0	9401	15.4	2
0	9402	15.4	1
0	9415	15.45	1
0	9416	15.45	2
0	9417	15.45	1
0	9424	15.5	1
0	9425	15.5	2
0	9426	15.5	1
0	9427	15.5	1
0	9428	15.5	2
0	9429	15.5	1
0	9455	15.55	1
0	9456	15.55	2
0	9457	15.55	1
0	9477	15.6	1
0	9478	15.6	2
0	9479	15.6	1
0	9480	15.6	1
0	9481	15.6	2
0	9482	15.6	1
0	9495	15.65	1
0	9496	15.65	2
0	9497	15.65	1
0	9504	15.7	1
0	9505	15.7	2
0	9506	15.7	1
0	9507	15.7	1
0	9508	15.7	2
0	9509	15.7	1
0	9532	15.75	1
0	9533	15.75	2
0	9534	15.75	1
0	9541	15.8	1
0	9542	15.8	2
0	9543	15.8	1
0	9544	15.8	1
0	9545	15.8	2
0	9546	15.8	1
0	9559	15.85	1
0	9560	15.85	2
0	9561	15.85	1
0	9568	15.9	1
0	9569	15.9	2
0	9570	15.9	1
0	9571	15.9	1
0	9572	15.9	2
0	9573	15.9	1
0	9599	15.95	1
0	9600	15.95	2
0	9601	15.95	1
0	9608	16	1
0	9609	16	2
0	9610	16	1
0	9611	16	1
0	9612	16	2
0	9613	16	1
0	9626	16.05	1
0	9627	16.05	2
0	9628	16.05	1
0	9651	16.1	1
0	9652	16.1	2
0	9653	16.1	1
0	9654	16.1	1
0	9655	16.1	2
0	9656	16.1	1
0	9669	16.15	1
0	9670	16.15	2
0	9671	16.15	1
0	9678	16.2	1
0	9679	16.2	2
0	9680	16.2	1
0	9681	16.2	1
0	9682	16.2	2
0	9683	16.2	1
0	9696	16.25	1
0	9697	16.25	2
0	9698	16.25	1
0	9718	16.3	1
0	9719	16.3	2
0	9720	16.3	1
0	9721	16.3	1
0	9722	16.3	2
0	9723	16.3	1
0	9736	16.35	1
0	9737	16.35	2
0	9738	16.35	1
0	9745	16.4	1
0	9746	16.4	2
0	9747	16.4	1
0	9748	16.4	1
0	9749	16.4	2
0	9750	16.4	1
0	9763	16.45	1
0	9764	16.45	2
0	9765	16.45	1
0	9772	16.5	1
0	9773	16.5	2
0	9774	16.5	1
0	9775	16.5	1
0	9776	16.5	2
0	9777	16.5	1
0	9790	16.55	1
0	9791	16.55	2
0	9792	16.55	1
0	9799	16.6	1
0	9800	16.6	2
0	9801	16.6	1
0	9802	16.6	1
0	9803	16.6	2
0	9804	16.6	1
0	9820	16.65	1
0	9821	16.65	2
0	9822	16.65	1
0	9829	16.7	1
0	9830	16.7	2
0	9831	16.7	1
0	9832	16.7	1
0	9833	16.7	2
0	9834	16.7	1
0	9847	16.75	1
0	9848	16.75	2
0	9849	16.75	1
0	9856	16.8	1
0	9857	16.8	2
0	9858	16.8	1
0	9859	16.8	1
0	9860	16.8	2
0	9861	16.8	1
0	9874	16.85	1
0	9875	16.85	2
0	9876	16.85	1
0	9883	16.9	1
0	9884	16.9	2
0	9885	16.9	1
0	9886	16.9	1
0	9887	16.9	2
0	9888	16.9	1
0	9901	16.95	1
0	9902	16.95	2
0	9903	16.95	1
0	9910	17	1
0	9911	17	2
0	9912	17	1
0	9913	17	1
0	9914	17	2
0	9915	17	1
0	9928	17.05	1
0	9929	17.05	2
0	9930	17.05	1
0	9937	17.1	1
0	9938	17.1	2
0	9939	17.1	1
0	9940	17.1	1
0	9941	17.1	2
0	9942	17.1	1
0	9955	17.15	1
0	9956	17.15	2
0	9957	17.15	1
0	9964	17.2	1
0	9965	17.2	2
0	9966	17.2	1
0	9967	17.2	1
0	9968	17.2	2
0	9969	17.2	1
0	9982	17.25	1
0	9983	17.25	2
0	9984	17.25	1
0	9991	17.3	1
0	9992	17.3	2
0	9993	17.3	1
0	9994	17.3	1
0	9995	17.3	2
0	9996	17.3	1
0	10009	17.35	1
0	10010	17.35	2
0	10011	17.35	1
0	10018	17.4	1
0	10019	17.4	2
0	10020	17.4	1
0	10021	17.4	1
0	10022	17.4	2
0	10023	17.4	1
0	10036	17.45	1
0	10037	17.45	2
0	10038	17.45	1
0	10045	17.5	1
0	10046	17.5	2
0	10047	17.5	1
0	10048	17.5	1
0	10049	17.5	2
0	10050	17.5	1
0	10076	17.55	1
0	10077	17.55	2
0	10078	17.55	1
0	10085	17.6	1
0	10086	17.6	2
0	10087	17.6	1
0	10088	17.6	1
0	10089	17.6	2
0	10090	17.6	1
0	10103	17.65	1
0	10104	17.65	2
0	10105	17.65	1
0	10125	17.7	1
0	10126	17.7	2
0	10127	17.7	1
0	10128	17.7	1
0	10129	17.7	2
0	10130	17.7	1
0	10143	17.75	1
0	10144	17.75	2
0	10145	17.75	1
0	10152	17.8	1
0	10153	17.8	2
0	10154	17.8	1
0	10155	17.8	1
0	10156	17.8	2
0	10157	17.8	1
0	10170	17.85	1
0	10171	17.85	2
0	10172	17.85	1
0	10192	17.9	1
0	10193	17.9	2
0	10194	17.9	1
0	10195	17.9	1
0	10196	17.9	2
0	10197	17.9	1
0	10210	17.95	1
0	10211	17.95	2
0	10212	17.95	1
0	10219	18	1
0	10220	18	2
0	10221	18	1
0	10222	18	1
0	10223	18	2
0	10224	18	1
0	10250	18.05	1
0	10251	18.05	2
0	10252	18.05	1
0	10272	18.1	1
0	10273	18.1	2
0	10274	18.1	1
0	10275	18.1	1
0	10276	18.1	2
0	10277	18.1	1
0	10290	18.15	1
0	10291	18.15	2
0	10292	18.15	1
0	10299	18.2	1
0	10300	18.2	2
0	10301	18.2	1
0	10302	18.2	1
0	10303	18.2	2
0	10304	18.2	1
0	10330	18.25	1
0	10331	18.25	2
0	10332	18.25	1
0	10339	18.3	1
0	10340	18.3	2
0	10341	18.3	1
0	10342	18.3	1
0	10343	18.3	2
0	10344	18.3	1
0	10357	18.35	1
0	10358	18.35	2
0	10359	18.35	1
0	10366	18.4	1
0	10367	18.4	2
0	10368	18.4	1
0	10369	18.4	1
0	10370	18.4	2
0	10371	18.4	1
0	10397	18.45	1
0	10398	18.45	2
0	10399	18.45	1
0	10406	18.5	1
0	10407	18.5	2
0	10408	18.5	1
0	10409	18.5	1
0	10410	18.5	2
0	10411	18.5	1
0	10424	18.55	1
0	10425	18.55	2
0	10426	18.55	1
0	10446	18.6	1
0	10447	18.6	2
0	10448	18.6	1
0	10449	18.6	1
0	10450	18.6	2
0	10451	18.6	1
0	10477	18.65	1
0	10478	18.65	2
0	10479	18.65	1
0	10486	18.7	1
0	10487	18.7	2
0	10488	18.7	1
0	10489	18.7	1
0	10490	18.7	2
0	10491	18.7	1
0	10504	18.75	1
0	10505	18.75	2
0	10506	18.75	1
0	10526	18.8	1
0	10527	18.8	2
0	10528	18.8	1
0	10529	18.8	1
0	10530	18.8	2
0	10531	18.8	1
0	10544	18.85	1
0	10545	18.85	2
0	10546	18.85	1
0	10553	18.9	1
0	10554	18.9	2
0	10555	18.9	1
0	10556	18.9	1
0	10557	18.9	2
0	10558	18.9	1
0	10571	18.95	1
0	10572	18.95	2
0	10573	18.95	1
0	10593	19	1
0	10594	19	2
0	10595	19	1
0	10596	19	1
0	10597	19	2
0	10598	19	1
0	10611	19.05	1
0	10612	19.05	2
0	10613	19.05	1
0	10620	19.1	1
0	10621	19.1	2
0	10622	19.1	1
0	10623	19.1	1
0	10624	19.1	2
0	10625	19.1	1
0	10651	19.15	1
0	10652	19.15	2
0	10653	19.15	1
0	10673	19.2	1
0	10674	19.2	2
0	10675	19.2	1
0	10676	19.2	1
0	10677	19.2	2
0	10678	19.2	1
0	10691	19.25	1
0	10692	19.25	2
0	10693	19.25	1
0	10700	19.3	1
0	10701	19.3	2
0	10702	19.3	1
0	10703	19.3	1
0	10704	19.3	2
0	10705	19.3	1
0	10731	19.35	1
0	10732	19.35	2
0	10733	19.35	1
0	10740	19.4	1
0	10741	19.4	2
0	10742	19.4	1
0	10743	19.4	1
0	10744	19.4	2
0	10745	19.4	1
0	10758	19.45	1
0	10759	19.45	2
0	10760	19.45	1
0	10767	19.5	1
0	10768	19.5	2
0	10769	19.5	1
0	10770	19.5	1
0	10771	19.5	2
0	10772	19.5	1
0	10798	19.55	1
0	10799	19.55	2
0	10800	19.55	1
0	10807	19.6	1
0	10808	19.6	2
0	10809	19.6	1
0	10810	19.6	1
0	10811	19.6	2
0	10812	19.6	1
0	10825	19.65	1
0	10826	19.65	2
0	10827	19.65	1
0	10847	19.7	1
0	10848	19.7	2
0	10849	19.7	1
0	10850	19.7	1
0	10851	19.7	2
0	10852	19.7	1
0	10878	19.75	1
0	10879	19.75	2
0	10880	19.75	1
0	10887	19.8	1
0	10888	19.8	2
0	10889	19.8	1
0	10890	19.8	1
0	10891	19.8	2
0	10892	19.8	1
0	10905	19.85	1
0	10906	19.85	2
0	10907	19.85	1
0	10927	19.9	1
0	10928	19.9	2
0	10929	19.9	1
0	10930	19.9	1
0	10931	19.9	2
0	10932	19.9	1
0	10945	19.95	1
0	10946	19.95	2
0	10947	19.95	1
0	10954	20	1
0	10955	20	2
0	10956	20	1
0	10957	20	1
0	10958	20	2
0	10959	20	1
1	19	0.1	-nan
1	21	0.1	-nan
1	41	0.101	-nan
1	42	0.101	-nan
1	45	0.102	-nan
1	46	0.102	-nan
1	49	0.103	-nan
1	50	0.103	-nan
1	53	0.104	-nan
1	54	0.104	-nan
1	57	0.105	-nan
1	58	0.105	-nan
1	61	0.106	-nan
1	62	0.106	-nan
1	65	0.107	-nan
1	66	0.107	-nan
1	69	0.108	-nan
1	70	0.108	-nan
1	73	0.109	-nan
1	74	0.109	-nan
1	77	0.11	-nan
1	78	0.11	-nan
1	81	0.111	-nan
1	82	0.111	-nan
1	85	0.112	-nan
1	86	0.112	-nan
1	89	0.113	-nan
1	90	0.113	-nan
1	93	0.114	-nan
1	94	0.114	-nan
1	97	0.115	-nan
1	98	0.115	-nan
1	101	0.116	-nan
1	102	0.116	-nan
1	105	0.117	-nan
1	106	0.117	-nan
1	109	0.118	-nan
1	110	0.118	-nan
1	113	0.119	-nan
1	114	0.119	-nan
1	117	0.12	-nan
1	118	0.12	-nan
1	121	0.121	-nan
1	122	0.121	-nan
1	125	0.122	-nan
1	126	0.122	-nan
1	129	0.123	-nan
1	130	0.123	-nan
1	133	0.124	-nan
1	134	0.124	-nan
1	137	0.125	-nan
1	138	0.125	-nan
1	141	0.126	-nan
1	142	0.126	-nan
1	145	0.127	-nan
1	146	0.127	-nan
1	149	0.128	-nan
1	150	0.128	-nan
1	153	0.129	-nan
1	154	0.129	-nan
1	157	0.13	-nan
1	158	0.13	-nan
1	161	0.131	-nan
1	162	0.131	-nan
1	165	0.132	-nan
1	166	0.132	-nan
1	169	0.133	-nan
1	170	0.133	-nan
1	173	0.134	-nan
1	174	0.134	-nan
1	177	0.135	-nan
1	178	0.135	-nan
1	181	0.136	-nan
1	182	0.136	-nan
1	185	0.137	-nan
1	186	0.137	-nan
1	189	0.138	-nan
1	190	0.138	-nan
1	193	0.139	-nan
1	194	0.139	-nan
1	197	0.14	-nan
1	198	0.14	-nan
1	201	0.141	-nan
1	202	0.141	-nan
1	205	0.142	-nan
1	206	0.142	-nan
1	209	0.143	-nan
1	210	0.143	-nan
1	213	0.144	-nan
1	214	0.144	-nan
1	217	0.145	-nan
1	218	0.145	-nan
1	221	0.146	-nan
1	222	0.146	-nan
1	225	0.147	-nan
1	226	0.147	-nan
1	229	0.148	-nan
1	230	0.148	-nan
1	233	0.149	-nan
1	234	0.149	-nan
1	240	0.15	-nan
1	241	0.15	-nan
1	250	0.151	-nan
1	251	0.151	-nan
1	254	0.152	-nan
1	255	0.152	-nan
1	258	0.153	-nan
1	259	0.153	-nan
1	262	0.154	-nan
1	263	0.154	-nan
1	266	0.155	-nan
1	267	0.155	-nan
1	270	0.156	-nan
1	271	0.156	-nan
1	274	0.157	-nan
1	275	0.157	-nan
1	278	0.158	-nan
1	279	0.158	-nan
1	282	0.159	-nan
1	283	0.159	-nan
1	286	0.16	-nan
1	287	0.16	-nan
1	290	0.161	-nan
1	291	0.161	-nan
1	294	0.162	-nan
1	295	0.162	-nan
1	298	0.163	-nan
1	299	0.163	-nan
1	302	0.164	-nan
1	303	0.164	-nan
1	306	0.165	-nan
1	307	0.165	-nan
1	310	0.166	-nan
1	311	0.166	-nan
1	314	0.167	-nan
1	315	0.167	-nan
1	318	0.168	-nan
1	319	0.168	-nan
1	322	0.169	-nan
1	323	0.169	-nan
1	326	0.17	-nan
1	327	0.17	-nan
1	330	0.171	-nan
1	331	0.171	-nan
1	334	0.172	-nan
1	335	0.172	-nan
1	338	0.173	-nan
1	339	0.173	-nan
1	342	0.174	-nan
1	343	0.174	-nan
1	346	0.175	-nan
1	347	0.175	-nan
1	350	0.176	-nan
1	351	0.176	-nan
1	354	0.177	-nan
1	355	0.177	-nan
1	358	0.178	-nan
1	359	0.178	-nan
1	362	0.179	-nan
1	363	0.179	-nan
1	366	0.18	-nan
1	367	0.18	-nan
1	370	0.181	-nan
1	371	0.181	-nan
1	374	0.182	-nan
1	375	0.182	-nan
1	378	0.183	-nan
1	379	0.183	-nan
1	382	0.184	-nan
1	383	0.184	-nan
1	386	0.185	-nan
1	387	0.185	-nan
1	390	0.186	-nan
1	391	0.186	-nan
1	394	0.187	-nan
1	395	0.187	-nan
1	398	0.188	-nan
1	399	0.188	-nan
1	402	0.189	-nan
1	403	0.189	-nan
1	406	0.19	-nan
1	407	0.19	-nan
1	410	0.191	-nan
1	411	0.191	-nan
1	414	0.192	-nan
1	415	0.192	-nan
1	418	0.193	-nan
1	419	0.193	-nan
1	422	0.194	-nan
1	423	0.194	-nan
1	426	0.195	-nan
1	427	0.195	-nan
1	430	0.196	-nan
1	431	0.196	-nan
1	434	0.197	-nan
1	435	0.197	-nan
1	438	0.198	-nan
1	439	0.198	-nan
1	442	0.199	-nan
1	443	0.199	-nan
2	962	1.142624192201	141
2	981	1.156464192201	282
2	991	1.170304192201	423
2	1001	1.184144192201	564
2	1011	1.197984192201	705
2	1039	1.211824192201	846
2	1049	1.225664192201	987
2	1059	1.239504192201	1128
2	1078	1.253344192201	1269
2	1088	1.267184192201	1410
2	1098	1.281024192201	1551
2	1108	1.294864192201	1692
2	1136	1.308704192201	1833
2	1146	1.322544192201	1974
2	1156	1.336384192201	2115
2	1175	1.350224192201	2256
2	1185	1.364064192201	2397
2	1195	1.377904192201	2538
2	1205	1.391744192201	2679
2	1234	1.419424192201	2820
2	1244	1.433264192201	2961
2	1254	1.447104192201	3102
2	1273	1.460944192201	3243
2	1283	1.474784192201	3384
2	1293	1.488624192201	3525
2	1318	1.502464192201	3666
2	1328	1.516304192201	3807
2	1338	1.530144192201	3948
2	1348	1.543984192201	4089
2	1367	1.557824192201	4230
2	1377	1.571664192201	4371
2	1388	1.599344192201	4512
2	1416	1.613184192201	4653
2	1426	1.627024192201	4794
2	1436	1.640864192201	4935
2	1463	1.654704192201	5076
2	1487	1.668544192201	5217
2	1497	1.682384192201	5358
2	1507	1.696224192201	5499
2	1532	1.710064192201	5640
2	1542	1.723904192201	5781
2	1552	1.737744192201	5922
2	1571	1.751584192201	6063
2	1581	1.765424192201	6204
2	1592	1.793104192201	6345
2	1620	1.806944192201	6486
2	1630	1.820784192201	6627
2	1637	1.834624192201	6768
2	1647	1.848464192201	6909
2	1666	1.862304192201	7050
2	1676	1.876144192201	7191
2	1686	1.889984192201	7332
2	1714	1.903824192201	7473
2	1724	1.917664192201	7614
2	1734	1.931504192201	7755
2	1744	1.945344192201	7896
2	1760	1.959184192201	8037
2	1770	1.973024192201	8178
2	1780	1.986864192201	8319
2	1808	2.000704192201	8460
2	1815	2.014544192201	8601
2	1825	2.028384192201	8742
2	1835	2.042224192201	8883
2	1854	2.056064192201	9024
2	1864	2.069904192201	9165
2	1874	2.083744192201	9306
2	1884	2.097584192201	9447
2	1912	2.111424192201	9588
2	1922	2.125264192201	9729
2	1932	2.139104192201	9870
2	1948	2.152944192201	10011
2	1958	2.166784192201	10152
2	1968	2.180624192201	10293
2	1978	2.194464192201	10434
2	2010	2.208304192201	10575
2	2020	2.222144192201	10716
2	2030	2.235984192201	10857
2	2040	2.249824192201	10998
2	2059	2.263664192201	11139
2	2069	2.277504192201	11280
2	2079	2.291344192201	11421
2	2107	2.305184192201	11562
2	2117	2.319024192201	11703
2	2127	2.332864192201	11844
2	2137	2.346704192201	11985
2	2156	2.360544192201	12126
2	2166	2.374384192201	12267
2	2176	2.388224192201	12408
2	2205	2.415904192201	12549
2	2215	2.429744192201	12690
2	2225	2.443584192201	12831
2	2244	2.457424192201	12972
2	2254	2.471264192201	13113
2	2264	2.485104192201	13254
2	2274	2.498944192201	13395
2	2302	2.512784192201	13536
2	2571	2.550672534095	13677
2	2596	2.574624192201	13818
2	2606	2.578352534095	13959
2	2612	2.588464192201	14100
2	2619	2.592192534095	14241
2	2643	2.602304192201	14382
2	2653	2.606032534095	14523
2	2659	2.616144192201	14664
2	2669	2.619872534095	14805
2	2675	2.629984192201	14946
2	2685	2.633712534095	15087
2	2691	2.643824192201	15228
2	2711	2.657664192201	15369
2	2721	2.661392534095	15510
2	2727	2.671504192201	15651
2	2737	2.675232534095	15792
2	2743	2.685344192201	15933
2	2750	2.689072534095	16074
2	2756	2.699184192201	16215
2	2792	2.702912534095	16356
2	2825	2.716752534095	16497
2	2851	2.730592534095	16638
2	2865	2.744432534095	16779
2	2884	2.758272534095	16920
2	2894	2.772112534095	17061
2	2904	2.785952534095	17202
2	2914	2.799792534095	17343
2	2943	2.827472534095	17484
2	2953	2.841312534095	17625
2	2974	2.855152534095	17766
2	2995	2.868992534095	17907
2	3005	2.882832534095	18048
2	3034	2.910512534095	18189
2	3042	2.938192534095	18330
2	3061	2.952032534095	18471
2	3071	2.965872534095	18612
2	3078	2.979712534095	18753
2	3088	2.993552534095	18894
2	3116	3.007392534095	19035
2	3126	3.021232534095	19176
2	3136	3.035072534095	19317
2	3146	3.048912534095	19458
2	3165	3.062752534095	19599
2	3175	3.076592534095	19740
2	3185	3.090432534095	19881
2	3213	3.104272534095	20022
2	3223	3.118112534095	20163
2	3233	3.131952534095	20304
2	3243	3.145792534095	20445
2	3262	3.159632534095	20586
2	3272	3.173472534095	20727
2	3282	3.187312534095	20868
2	3307	3.201152534095	21009
2	3317	3.214992534095	21150
2	3327	3.228832534095	21291
2	3337	3.242672534095	21432
2	3358	3.256512534095	21573
2	3379	3.270352534095	21714
2	3389	3.284192534095	21855
2	3418	3.311872534095	21996
2	3428	3.325712534095	22137
2	3438	3.339552534095	22278
2	3457	3.353392534095	22419
2	3467	3.367232534095	22560
2	3478	3.394912534095	22701
2	3517	3.422592534095	22842
2	3527	3.436432534095	22983
2	3546	3.450272534095	23124
2	3556	3.464112534095	23265
2	3566	3.477952534095	23406
2	3576	3.491792534095	23547
2	3604	3.505632534095	23688
2	3614	3.519472534095	23829
2	3624	3.533312534095	23970
2	3634	3.547152534095	24111
2	3653	3.560992534095	24252
2	3663	3.574832534095	24393
2	3673	3.588672534095	24534
2	3701	3.602512534095	24675
2	3711	3.616352534095	24816
2	3721	3.630192534095	24957
2	3731	3.644032534095	25098
2	3750	3.657872534095	25239
2	3760	3.671712534095	25380
2	3770	3.685552534095	25521
2	3780	3.699392534095	25662
2	3808	3.713232534095	25803
2	3819	3.740912534095	25944
2	3838	3.754752534095	26085
2	3848	3.768592534095	26226
2	3858	3.782432534095	26367
2	3868	3.796272534095	26508
2	3914	3.810112534095	26649
2	3928	3.823952534095	26790
2	3948	3.851632534095	26931
2	3958	3.865472534095	27072
2	3968	3.879312534095	27213
2	3975	3.893152534095	27354
2	4003	3.906992534095	27495
2	4013	3.920832534095	27636
2	4082	3.953781727181	27777
2	4103	3.967621727181	27918
2	4113	3.981461727181	28059
2	4123	3.995301727181	28200
2	4151	4.009141727181	28341
2	4161	4.022981727181	28482
2	4178	4.050661727181	28623
2	4188	4.064501727181	28764
2	4198	4.078341727181	28905
2	4208	4.092181727181	29046
2	4236	4.106021727181	29187
2	4246	4.119861727181	29328
2	4256	4.133701727181	29469
2	4266	4.147541727181	29610
2	4300	4.175850920267	29751
2	4310	4.189690920267	29892
2	4861	5.078453385287	30033
2	4871	5.092293385287	30174
2	4899	5.106133385287	30315
2	4909	5.119973385287	30456
2	4919	5.133813385287	30597
2	4929	5.147653385287	30738
2	4948	5.161493385287	30879
2	4958	5.175333385287	31020
2	4968	5.189173385287	31161
2	4997	5.216853385287	31302
2	5007	5.230693385287	31443
2	5017	5.244533385287	31584
2	5036	5.258373385287	31725
2	5046	5.272213385287	31866
2	5056	5.286053385287	32007
2	5066	5.299893385287	32148
2	5094	5.313733385287	32289
2	5104	5.327573385287	32430
2	5114	5.341413385287	32571
2	5133	5.355253385287	32712
2	5143	5.369093385287	32853
2	5153	5.382933385287	32994
2	5163	5.396773385287	33135
2	5191	5.410613385287	33276
2	5201	5.424453385287	33417
2	5211	5.438293385287	33558
2	5232	5.452133385287	33699
2	5249	5.465973385287	33840
2	5259	5.479813385287	33981
2	5269	5.493653385287	34122
2	5297	5.507493385287	34263
2	5307	5.521333385287	34404
2	5317	5.535173385287	34545
2	5327	5.549013385287	34686
2	5346	5.562853385287	34827
2	5356	5.576693385287	34968
2	5366	5.590533385287	35109
2	5396	5.604373385287	35250
2	5406	5.618213385287	35391
2	5416	5.632053385287	35532
2	5426	5.645893385287	35673
2	5445	5.659733385287	35814
2	5455	5.673573385287	35955
2	5465	5.687413385287	36096
2	5493	5.701253385287	36237
2	5503	5.715093385287	36378
2	5513	5.728933385287	36519
2	5523	5.742773385287	36660
2	5542	5.756613385287	36801
2	5552	5.770453385287	36942
2	5562	5.784293385287	37083
2	5572	5.798133385287	37224
2	5600	5.811973385287	37365
2	5610	5.825813385287	37506
2	5617	5.839653385287	37647
2	5636	5.853493385287	37788
2	5646	5.867333385287	37929
2	5656	5.881173385287	38070
2	5666	5.895013385287	38211
2	5694	5.908853385287	38352
2	5704	5.922693385287	38493
2	5714	5.936533385287	38634
2	5733	5.950373385287	38775
2	5743	5.964213385287	38916
2	5753	5.978053385287	39057
2	5763	5.991893385287	39198
2	5791	6.005733385287	39339
2	5801	6.019573385287	39480
2	5812	6.047253385287	39621
2	5831	6.061093385287	39762
2	5841	6.074933385287	39903
2	5851	6.088773385287	40044
2	5876	6.102613385287	40185
2	5886	6.116453385287	40326
2	5896	6.130293385287	40467
2	5906	6.144133385287	40608
2	5925	6.157973385287	40749
2	5935	6.171813385287	40890
2	5945	6.185653385287	41031
2	5955	6.199493385287	41172
2	5983	6.213333385287	41313
2	5993	6.227173385287	41454
2	6000	6.241013385287	41595
2	6019	6.254853385287	41736
2	6029	6.268693385287	41877
2	6039	6.282533385287	42018
2	6049	6.296373385287	42159
2	6077	6.310213385287	42300
2	6087	6.324053385287	42441
2	6097	6.337893385287	42582
2	6116	6.351733385287	42723
2	6126	6.365573385287	42864
2	6136	6.379413385287	43005
2	6146	6.393253385287	43146
2	6174	6.407093385287	43287
2	6184	6.420933385287	43428
2	6194	6.434773385287	43569
2	6204	6.448613385287	43710
2	6223	6.462453385287	43851
2	6233	6.476293385287	43992
2	6288	6.509242578373	44133
2	6298	6.523082578373	44274
2	6308	6.536922578373	44415
2	6327	6.550762578373	44556
2	6337	6.564602578373	44697
3	962	1.142624192201	141
3	981	1.156464192201	282
3	991	1.170304192201	423
3	1001	1.184144192201	564
3	1011	1.197984192201	705
3	1039	1.211824192201	846
3	1049	1.225664192201	987
3	1059	1.239504192201	1128
3	1078	1.253344192201	1269
3	1088	1.267184192201	1410
3	1098	1.281024192201	1551
3	1108	1.294864192201	1692
3	1136	1.308704192201	1833
3	1146	1.322544192201	1974
3	1156	1.336384192201	2115
3	1175	1.350224192201	2256
3	1185	1.364064192201	2397
3	1195	1.377904192201	2538
3	1205	1.391744192201	2679
3	1234	1.419424192201	2820
3	1244	1.433264192201	2961
3	1254	1.447104192201	3102
3	1273	1.460944192201	3243
3	1283	1.474784192201	3384
3	1293	1.488624192201	3525
3	1318	1.502464192201	3666
3	1328	1.516304192201	3807
3	1338	1.530144192201	3948
3	1348	1.543984192201	4089
3	1367	1.557824192201	4230
3	1377	1.571664192201	4371
3	1388	1.599344192201	4512
3	1416	1.613184192201	4653
3	1426	1.627024192201	4794
3	1436	1.640864192201	4935
3	1463	1.654704192201	5076
3	1487	1.668544192201	5217
3	1497	1.682384192201	5358
3	1507	1.696224192201	5499
3	1532	1.710064192201	5640
3	1542	1.723904192201	5781
3	1552	1.737744192201	5922
3	1571	1.751584192201	6063
3	1581	1.765424192201	6204
3	1592	1.793104192201	6345
3	1620	1.806944192201	6486
3	1630	1.820784192201	6627
3	1637	1.834624192201	6768
3	1647	1.848464192201	6909
3	1666	1.862304192201	7050
3	1676	1.876144192201	7191
3	1686	1.889984192201	7332
3	1714	1.903824192201	7473
3	1724	1.917664192201	7614
3	1734	1.931504192201	7755
3	1744	1.945344192201	7896
3	1760	1.959184192201	8037
3	1770	1.973024192201	8178
3	1780	1.986864192201	8319
3	1808	2.000704192201	8460
3	1815	2.014544192201	8601
3	1825	2.028384192201	8742
3	1835	2.042224192201	8883
3	1854	2.056064192201	9024
3	1864	2.069904192201	9165
3	1874	2.083744192201	9306
3	1884	2.097584192201	9447
3	1912	2.111424192201	9588
3	1922	2.125264192201	9729
3	1932	2.139104192201	9870
3	1948	2.152944192201	10011
3	1958	2.166784192201	10152
3	1968	2.180624192201	10293
3	1978	2.194464192201	10434
3	2010	2.208304192201	10575
3	2020	2.222144192201	10716
3	2030	2.235984192201	10857
3	2040	2.249824192201	10998
3	2059	2.263664192201	11139
3	2069	2.277504192201	11280
3	2079	2.291344192201	11421
3	2107	2.305184192201	11562
3	2117	2.319024192201	11703
3	2127	2.332864192201	11844
3	2137	2.346704192201	11985
3	2156	2.360544192201	12126
3	2166	2.374384192201	12267
3	2176	2.388224192201	12408
3	2205	2.415904192201	12549
3	2215	2.429744192201	12690
3	2225	2.443584192201	12831
3	2244	2.457424192201	12972
3	2254	2.471264192201	13113
3	2264	2.485104192201	13254
3	2274	2.498944192201	13395
3	2302	2.512784192201	13536
3	2571	2.550672534095	13677
3	2596	2.574624192201	13818
3	2606	2.578352534095	13959
3	2612	2.588464192201	14100
3	2619	2.592192534095	14241
3	2643	2.602304192201	14382
3	2653	2.606032534095	14523
3	2659	2.616144192201	14664
3	2669	2.619872534095	14805
3	2675	2.629984192201	14946
3	2685	2.633712534095	15087
3	2691	2.643824192201	15228
3	2711	2.657664192201	15369
3	2721	2.661392534095	15510
3	2727	2.671504192201	15651
3	2737	2.675232534095	15792
3	2743	2.685344192201	15933
3	2750	2.689072534095	16074
3	2756	2.699184192201	16215
3	2792	2.702912534095	16356
3	2825	2.716752534095	16497
3	2851	2.730592534095	16638
3	2865	2.744432534095	16779
3	2884	2.758272534095	16920
3	2894	2.772112534095	17061
3	2904	2.785952534095	17202
3	2914	2.799792534095	17343
3	2943	2.827472534095	17484
3	2953	2.841312534095	17625
3	2974	2.855152534095	17766
3	2995	2.868992534095	17907
3	3005	2.882832534095	18048
3	3034	2.910512534095	18189
3	3042	2.938192534095	18330
3	3061	2.952032534095	18471
3	3071	2.965872534095	18612
3	3078	2.979712534095	18753
3	3088	2.993552534095	18894
3	3116	3.007392534095	19035
3	3126	3.021232534095	19176
3	3136	3.035072534095	19317
3	3146	3.048912534095	19458
3	3165	3.062752534095	19599
3	3175	3.076592534095	19740
3	3185	3.090432534095	19881
3	3213	3.104272534095	20022
3	3223	3.118112534095	20163
3	3233	3.131952534095	20304
3	3243	3.145792534095	20445
3	3262	3.159632534095	20586
3	3272	3.173472534095	20727
3	3282	3.187312534095	20868
3	3307	3.201152534095	21009
3	3317	3.214992534095	21150
3	3327	3.228832534095	21291
3	3337	3.242672534095	21432
3	3358	3.256512534095	21573
3	3379	3.270352534095	21714
3	3389	3.284192534095	21855
3	3418	3.311872534095	21996
3	3428	3.325712534095	22137
3	3438	3.339552534095	22278
3	3457	3.353392534095	22419
3	3467	3.367232534095	22560
3	3478	3.394912534095	22701
3	3517	3.422592534095	22842
3	3527	3.436432534095	22983
3	3546	3.450272534095	23124
3	3556	3.464112534095	23265
3	3566	3.477952534095	23406
3	3576	3.491792534095	23547
3	3604	3.505632534095	23688
3	3614	3.519472534095	23829
3	3624	3.533312534095	23970
3	3634	3.547152534095	24111
3	3653	3.560992534095	24252
3	3663	3.574832534095	24393
3	3673	3.588672534095	24534
3	3701	3.602512534095	24675
3	3711	3.616352534095	24816
3	3721	3.630192534095	24957
3	3731	3.644032534095	25098
3	3750	3.657872534095	25239
3	3760	3.671712534095	25380
3	3770	3.685552534095	25521
3	3780	3.699392534095	25662
3	3808	3.713232534095	25803
3	3819	3.740912534095	25944
3	3838	3.754752534095	26085
3	3848	3.768592534095	26226
3	3858	3.782432534095	26367
3	3868	3.796272534095	26508
3	3914	3.810112534095	26649
3	3928	3.823952534095	26790
3	3948	3.851632534095	26931
3	3958	3.865472534095	27072
3	3968	3.879312534095	27213
3	3975	3.893152534095	27354
3	4003	3.906992534095	27495
3	4013	3.920832534095	27636
3	4082	3.953781727181	27777
3	4103	3.967621727181	27918
3	4113	3.981461727181	28059
3	4123	3.995301727181	28200
3	4151	4.009141727181	28341
3	4161	4.022981727181	28482
3	4178	4.050661727181	28623
3	4188	4.064501727181	28764
3	4198	4.078341727181	28905
3	4208	4.092181727181	29046
3	4236	4.106021727181	29187
3	4246	4.119861727181	29328
3	4256	4.133701727181	29469
3	4266	4.147541727181	29610
3	4300	4.175850920267	29751
3	4310	4.189690920267	29892
3	4861	5.078453385287	30033
3	4871	5.092293385287	30174
3	4899	5.106133385287	30315
3	4909	5.119973385287	30456
3	4919	5.133813385287	30597
3	4929	5.147653385287	30738
3	4948	5.161493385287	30879
3	4958	5.175333385287	31020
3	4968	5.189173385287	31161
3	4997	5.216853385287	31302
3	5007	5.230693385287	31443
3	5017	5.244533385287	31584
3	5036	5.258373385287	31725
3	5046	5.272213385287	31866
3	5056	5.286053385287	32007
3	5066	5.299893385287	32148
3	5094	5.313733385287	32289
3	5104	5.327573385287	32430
3	5114	5.341413385287	32571
3	5133	5.355253385287	32712
3	5143	5.369093385287	32853
3	5153	5.382933385287	32994
3	5163	5.396773385287	33135
3	5191	5.410613385287	33276
3	5201	5.424453385287	33417
3	5211	5.438293385287	33558
3	5232	5.452133385287	33699
3	5249	5.465973385287	33840
3	5259	5.479813385287	33981
3	5269	5.493653385287	34122
3	5297	5.507493385287	34263
3	5307	5.521333385287	34404
3	5317	5.535173385287	34545
3	5327	5.549013385287	34686
3	5346	5.562853385287	34827
3	5356	5.576693385287	34968
3	5366	5.590533385287	35109
3	5396	5.604373385287	35250
3	5406	5.618213385287	35391
3	5416	5.632053385287	35532
3	5426	5.645893385287	35673
3	5445	5.659733385287	35814
3	5455	5.673573385287	35955
3	5465	5.687413385287	36096
3	5493	5.701253385287	36237
3	5503	5.715093385287	36378
3	5513	5.728933385287	36519
3	5523	5.742773385287	36660
3	5542	5.756613385287	36801
3	5552	5.770453385287	36942
3	5562	5.784293385287	37083
3	5572	5.798133385287	37224
3	5600	5.811973385287	37365
3	5610	5.825813385287	37506
3	5617	5.839653385287	37647
3	5636	5.853493385287	37788
3	5646	5.867333385287	37929
3	5656	5.881173385287	38070
3	5666	5.895013385287	38211
3	5694	5.908853385287	38352
3	5704	5.922693385287	38493
3	5714	5.936533385287	38634
3	5733	5.950373385287	38775
3	5743	5.964213385287	38916
3	5753	5.978053385287	39057
3	5763	5.991893385287	39198
3	5791	6.005733385287	39339
3	5801	6.019573385287	39480
3	5812	6.047253385287	39621
3	5831	6.061093385287	39762
3	5841	6.074933385287	39903
3	5851	6.088773385287	40044
3	5876	6.102613385287	40185
3	5886	6.116453385287	40326
3	5896	6.130293385287	40467
3	5906	6.144133385287	40608
3	5925	6.157973385287	40749
3	5935	6.171813385287	40890
3	5945	6.185653385287	41031
3	5955	6.199493385287	41172
3	5983	6.213333385287	41313
3	5993	6.227173385287	41454
3	6000	6.241013385287	41595
3	6019	6.254853385287	41736
3	6029	6.268693385287	41877
3	6039	6.282533385287	42018
3	6049	6.296373385287	42159
3	6077	6.310213385287	42300
3	6087	6.324053385287	42441
3	6097	6.337893385287	42582
3	6116	6.351733385287	42723
3	6126	6.365573385287	42864
3	6136	6.379413385287	43005
3	6146	6.393253385287	43146
3	6174	6.407093385287	43287
3	6184	6.420933385287	43428
3	6194	6.434773385287	43569
3	6204	6.448613385287	43710
3	6223	6.462453385287	43851
3	6233	6.476293385287	43992
3	6288	6.509242578373	44133
3	6298	6.523082578373	44274
3	6308	6.536922578373	44415
3	6327	6.550762578373	44556
3	6337	6.564602578373	44697

