version 2
run A2-0-20190918-23:50:49-5977
attr configname A2
attr datetime 20190918-23:50:49
attr experiment A2
attr inifile SimV2.ini
attr iterationvars ""
attr iterationvarsf ""
attr measurement ""
attr network NetworkTormV2
attr processid 5977
attr repetition 0
attr replication #0
attr resultdir results
attr runnumber 0
attr seedset 0
param **.mobility.traceFile "\"paths/A.movements\""
param **.numNodes 3
param **.wirelessIfc.wirelessRange 40m
param **.bluetoothIfc.wirelessRange 40m
param **application.destinationAddr "\"Wf:00:00:00:00:02\""
param **application.destinationBTAddr "\"Bt:00:00:00:00:02\""
param **application.nodesThatGen true
param **application.nodesGenMsg "\"0,1\""
param **application.startMultipleMsg true
param **application.numMultipleMsg 100
param **application.hopsListSize 50
param **.numNodes 2
param **.application.usedRNG 1
param **.application.dataGenerationInterval 1ms
param **.application.dataSizeInBytes 10
param **.application.ttl 999999s
param **application.destinationAddr "\"Wf:00:00:00:00:02\""
param **application.destinationBTAddr "\"Bt:00:00:00:00:02\""
param **application.nodesThatGen true
param **application.nodesGenMsg "\"0\""
param **application.startMultipleMsg true
param **application.numMultipleMsg 100
param **application.hopsListSize 50
param **.application.endGeneratingMsg 999999s
param **.routingLayer "\"RoutingLayer\""
param **.routing.maximumCacheSize 5000byte
param **.routing.maximumHopCount 25
param **.routing.useTTL false
param **.routing.waitBFsend 0.5
param **.routing.max_age 999999s
param **.neighboring.antiEntropyInterval 500ms
param **.neighboring.maximumRandomBackoffDuration 1s
param **.neighboring.delayPerDataMsg 0.1
param **neighboring.usedRNG 2
param **.neighboring.GWAddr "\"Wf:00:00:00:00:02\""
param **.neighboring.sendWifiFirst true
param **.neighboring.maxLengthGraph 20
param **.neighboring.max_age 999999s
param **.neighboring.max_absent_time 1s
param **.wirelessIfc.wirelessRange 15m
param **.wirelessIfc.neighbourScanInterval 50ms
param **.wirelessIfc.bandwidthBitRate 100000bps
param **.wirelessIfc.wirelessHeaderSize 32byte
param **.wirelessIfc.minSSI -90
param **.wirelessIfc.limitQueueTime 400ms
param **.bluetoothIfc.wirelessRange 15m
param **.bluetoothIfc.neighbourScanInterval 100ms
param **.bluetoothIfc.bandwidthBitRate 100000bps
param **.bluetoothIfc.wirelessHeaderSize 16byte
param **.bluetoothIfc.minSSI -90
param **.mobilityType "\"BonnMotionMobility\""
param **.mobility.traceFile "\"paths/Moves2.movements\""
param **.mobility.is3D false
param **.mobility.nodeId -1

vector 0 NetworkTormV2 neighbourhoodSize:vector ETV
attr source neighbourhoodSize
vector 1 NetworkTormV2 deliveryRatio:vector ETV
attr source sum(totalDataBytesReceived)/sum(totalDataBytesReceivableByAllNodes)
vector 2 NetworkTormV2 dataBytesReceivedSum:vector ETV
attr source sum(dataBytesReceived)
vector 3 NetworkTormV2 totalBytesReceivedSum:vector ETV
attr source sum(totalBytesReceived)
0	10	0.05	1
0	11	0.05	2
0	12	0.05	1
0	20	0.1	1
0	22	0.1	2
0	23	0.1	1
0	24	0.1	1
0	25	0.1	2
0	26	0.1	1
0	237	0.15	1
0	238	0.15	2
0	239	0.15	1
0	446	0.2	1
0	447	0.2	2
0	448	0.2	1
0	449	0.2	1
0	450	0.2	2
0	451	0.2	1
0	464	0.25	1
0	465	0.25	2
0	466	0.25	1
0	473	0.3	1
0	474	0.3	2
0	475	0.3	1
0	476	0.3	1
0	477	0.3	2
0	478	0.3	1
0	491	0.35	1
0	492	0.35	2
0	493	0.35	1
0	500	0.4	1
0	501	0.4	2
0	502	0.4	1
0	503	0.4	1
0	504	0.4	2
0	505	0.4	1
0	518	0.45	1
0	519	0.45	2
0	520	0.45	1
0	527	0.5	1
0	528	0.5	2
0	529	0.5	1
0	530	0.5	1
0	531	0.5	2
0	532	0.5	1
0	545	0.55	1
0	546	0.55	2
0	547	0.55	1
0	554	0.6	1
0	555	0.6	2
0	556	0.6	1
0	557	0.6	1
0	558	0.6	2
0	559	0.6	1
0	572	0.65	1
0	573	0.65	2
0	574	0.65	1
0	581	0.7	1
0	582	0.7	2
0	583	0.7	1
0	584	0.7	1
0	585	0.7	2
0	586	0.7	1
0	599	0.75	1
0	600	0.75	2
0	601	0.75	1
0	608	0.8	1
0	609	0.8	2
0	610	0.8	1
0	611	0.8	1
0	612	0.8	2
0	613	0.8	1
0	626	0.85	1
0	627	0.85	2
0	628	0.85	1
0	635	0.9	1
0	636	0.9	2
0	637	0.9	1
0	638	0.9	1
0	639	0.9	2
0	640	0.9	1
0	653	0.95	1
0	654	0.95	2
0	655	0.95	1
0	662	1	1
0	663	1	2
0	664	1	1
0	665	1	1
0	666	1	2
0	667	1	1
0	680	1.05	1
0	681	1.05	2
0	682	1.05	1
0	689	1.1	1
0	690	1.1	2
0	691	1.1	1
0	692	1.1	1
0	693	1.1	2
0	694	1.1	1
0	969	1.15	1
0	970	1.15	2
0	971	1.15	1
0	1014	1.2	1
0	1015	1.2	2
0	1016	1.2	1
0	1017	1.2	1
0	1018	1.2	2
0	1019	1.2	1
0	1066	1.25	1
0	1067	1.25	2
0	1068	1.25	1
0	1115	1.3	1
0	1116	1.3	2
0	1117	1.3	1
0	1118	1.3	1
0	1119	1.3	2
0	1120	1.3	1
0	1163	1.35	1
0	1164	1.35	2
0	1165	1.35	1
0	1212	1.4	1
0	1213	1.4	2
0	1214	1.4	1
0	1215	1.4	1
0	1216	1.4	2
0	1217	1.4	1
0	1261	1.45	1
0	1262	1.45	2
0	1263	1.45	1
0	1297	1.5	1
0	1298	1.5	2
0	1299	1.5	1
0	1300	1.5	1
0	1301	1.5	2
0	1302	1.5	1
0	1355	1.55	1
0	1356	1.55	2
0	1357	1.55	1
0	1391	1.6	1
0	1392	1.6	2
0	1393	1.6	1
0	1394	1.6	1
0	1395	1.6	2
0	1396	1.6	1
0	1443	1.65	1
0	1444	1.65	2
0	1445	1.65	1
0	1511	1.7	1
0	1512	1.7	2
0	1513	1.7	1
0	1514	1.7	1
0	1515	1.7	2
0	1516	1.7	1
0	1559	1.75	1
0	1560	1.75	2
0	1561	1.75	1
0	1599	1.8	1
0	1600	1.8	2
0	1601	1.8	1
0	1602	1.8	1
0	1603	1.8	2
0	1604	1.8	1
0	1650	1.85	1
0	1651	1.85	2
0	1652	1.85	1
0	1693	1.9	1
0	1694	1.9	2
0	1695	1.9	1
0	1696	1.9	1
0	1697	1.9	2
0	1698	1.9	1
0	1748	1.95	1
0	1749	1.95	2
0	1750	1.95	1
0	1787	2	1
0	1788	2	2
0	1789	2	1
0	1790	2	1
0	1791	2	2
0	1792	2	1
0	1842	2.05	1
0	1843	2.05	2
0	1844	2.05	1
0	1887	2.1	1
0	1888	2.1	2
0	1889	2.1	1
0	1890	2.1	1
0	1891	2.1	2
0	1892	2.1	1
0	1936	2.15	1
0	1937	2.15	2
0	1938	2.15	1
0	1985	2.2	1
0	1986	2.2	2
0	1987	2.2	1
0	1988	2.2	1
0	1989	2.2	2
0	1990	2.2	1
0	2043	2.25	1
0	2044	2.25	2
0	2045	2.25	1
0	2086	2.3	1
0	2087	2.3	2
0	2088	2.3	1
0	2089	2.3	1
0	2090	2.3	2
0	2091	2.3	1
0	2144	2.35	1
0	2145	2.35	2
0	2146	2.35	1
0	2183	2.4	1
0	2184	2.4	2
0	2185	2.4	1
0	2186	2.4	1
0	2187	2.4	2
0	2188	2.4	1
0	2232	2.45	1
0	2233	2.45	2
0	2234	2.45	1
0	2277	2.5	1
0	2278	2.5	2
0	2279	2.5	1
0	2280	2.5	1
0	2281	2.5	2
0	2282	2.5	1
0	2313	2.55	1
0	2314	2.55	2
0	2315	2.55	1
0	2384	2.6	1
0	2385	2.6	2
0	2386	2.6	1
0	2387	2.6	1
0	2388	2.6	2
0	2389	2.6	1
0	2435	2.65	1
0	2436	2.65	2
0	2437	2.65	1
0	2475	2.7	1
0	2476	2.7	2
0	2477	2.7	1
0	2478	2.7	1
0	2479	2.7	2
0	2480	2.7	1
0	2740	2.75	1
0	2741	2.75	2
0	2742	2.75	1
0	2782	2.8	1
0	2783	2.8	2
0	2784	2.8	1
0	2785	2.8	1
0	2786	2.8	2
0	2787	2.8	1
0	2834	2.85	1
0	2835	2.85	2
0	2836	2.85	1
0	2905	2.9	1
0	2906	2.9	2
0	2907	2.9	1
0	2908	2.9	1
0	2909	2.9	2
0	2910	2.9	1
0	2959	2.95	1
0	2960	2.95	2
0	2961	2.95	1
0	2999	3	1
0	3000	3	2
0	3001	3	1
0	3002	3	1
0	3003	3	2
0	3004	3	1
0	3057	3.05	1
0	3058	3.05	2
0	3059	3.05	1
0	3084	3.1	1
0	3085	3.1	2
0	3086	3.1	1
0	3087	3.1	1
0	3088	3.1	2
0	3089	3.1	1
0	3130	3.15	1
0	3131	3.15	2
0	3132	3.15	1
0	3175	3.2	1
0	3176	3.2	2
0	3177	3.2	1
0	3178	3.2	1
0	3179	3.2	2
0	3180	3.2	1
0	3227	3.25	1
0	3228	3.25	2
0	3229	3.25	1
0	3291	3.3	1
0	3292	3.3	2
0	3293	3.3	1
0	3294	3.3	1
0	3295	3.3	2
0	3296	3.3	1
0	3339	3.35	1
0	3340	3.35	2
0	3341	3.35	1
0	3385	3.4	1
0	3386	3.4	2
0	3387	3.4	1
0	3388	3.4	1
0	3389	3.4	2
0	3390	3.4	1
0	3452	3.45	1
0	3453	3.45	2
0	3454	3.45	1
0	3486	3.5	1
0	3487	3.5	2
0	3488	3.5	1
0	3489	3.5	1
0	3490	3.5	2
0	3491	3.5	1
0	3535	3.55	1
0	3536	3.55	2
0	3537	3.55	1
0	3562	3.6	1
0	3563	3.6	2
0	3564	3.6	1
0	3565	3.6	1
0	3566	3.6	2
0	3567	3.6	1
0	3620	3.65	1
0	3621	3.65	2
0	3622	3.65	1
0	3669	3.7	1
0	3670	3.7	2
0	3671	3.7	1
0	3672	3.7	1
0	3673	3.7	2
0	3674	3.7	1
0	3717	3.75	1
0	3718	3.75	2
0	3719	3.75	1
0	3766	3.8	1
0	3767	3.8	2
0	3768	3.8	1
0	3769	3.8	1
0	3770	3.8	2
0	3771	3.8	1
0	3833	3.85	1
0	3834	3.85	2
0	3835	3.85	1
0	3867	3.9	1
0	3868	3.9	2
0	3869	3.9	1
0	3870	3.9	1
0	3871	3.9	2
0	3872	3.9	1
0	3925	3.95	1
0	3926	3.95	2
0	3927	3.95	1
0	3977	4	1
0	3978	4	2
0	3979	4	1
0	3980	4	1
0	3981	4	2
0	3982	4	1
0	4029	4.05	1
0	4030	4.05	2
0	4031	4.05	1
0	4071	4.1	1
0	4072	4.1	2
0	4073	4.1	1
0	4074	4.1	1
0	4075	4.1	2
0	4076	4.1	1
0	4095	4.15	1
0	4096	4.15	2
0	4097	4.15	1
0	4104	4.2	1
0	4105	4.2	2
0	4106	4.2	1
0	4107	4.2	1
0	4108	4.2	2
0	4109	4.2	1
0	4122	4.25	1
0	4123	4.25	2
0	4124	4.25	1
0	4131	4.3	1
0	4132	4.3	2
0	4133	4.3	1
0	4134	4.3	1
0	4135	4.3	2
0	4136	4.3	1
0	4149	4.35	1
0	4150	4.35	2
0	4151	4.35	1
0	4171	4.4	1
0	4172	4.4	2
0	4173	4.4	1
0	4174	4.4	1
0	4175	4.4	2
0	4176	4.4	1
0	4189	4.45	1
0	4190	4.45	2
0	4191	4.45	1
0	4211	4.5	1
0	4212	4.5	2
0	4213	4.5	1
0	4214	4.5	1
0	4215	4.5	2
0	4216	4.5	1
0	4242	4.55	1
0	4243	4.55	2
0	4244	4.55	1
0	4251	4.6	1
0	4252	4.6	2
0	4253	4.6	1
0	4254	4.6	1
0	4255	4.6	2
0	4256	4.6	1
0	4334	4.65	1
0	4335	4.65	2
0	4336	4.65	1
0	4367	4.7	1
0	4368	4.7	2
0	4369	4.7	1
0	4370	4.7	1
0	4371	4.7	2
0	4372	4.7	1
0	4419	4.75	1
0	4420	4.75	2
0	4421	4.75	1
0	4468	4.8	1
0	4469	4.8	2
0	4470	4.8	1
0	4471	4.8	1
0	4472	4.8	2
0	4473	4.8	1
0	4516	4.85	1
0	4517	4.85	2
0	4518	4.85	1
0	4525	4.9	1
0	4526	4.9	2
0	4527	4.9	1
0	4528	4.9	1
0	4529	4.9	2
0	4530	4.9	1
0	4556	4.95	1
0	4557	4.95	2
0	4558	4.95	1
0	4565	5	1
0	4566	5	2
0	4567	5	1
0	4568	5	1
0	4569	5	2
0	4570	5	1
0	4596	5.05	1
0	4597	5.05	2
0	4598	5.05	1
0	4618	5.1	1
0	4619	5.1	2
0	4620	5.1	1
0	4621	5.1	1
0	4622	5.1	2
0	4623	5.1	1
0	4636	5.15	1
0	4637	5.15	2
0	4638	5.15	1
0	4682	5.2	1
0	4683	5.2	2
0	4684	5.2	1
0	4685	5.2	1
0	4686	5.2	2
0	4687	5.2	1
0	4700	5.25	1
0	4701	5.25	2
0	4702	5.25	1
0	4709	5.3	1
0	4710	5.3	2
0	4711	5.3	1
0	4712	5.3	1
0	4713	5.3	2
0	4714	5.3	1
0	4727	5.35	1
0	4728	5.35	2
0	4729	5.35	1
0	4736	5.4	1
0	4737	5.4	2
0	4738	5.4	1
0	4739	5.4	1
0	4740	5.4	2
0	4741	5.4	1
0	4754	5.45	1
0	4755	5.45	2
0	4756	5.45	1
0	4766	5.5	1
0	4767	5.5	2
0	4768	5.5	1
0	4769	5.5	1
0	4770	5.5	2
0	4771	5.5	1
0	4784	5.55	1
0	4785	5.55	2
0	4786	5.55	1
0	4806	5.6	1
0	4807	5.6	2
0	4808	5.6	1
0	4809	5.6	1
0	4810	5.6	2
0	4811	5.6	1
0	4824	5.65	1
0	4825	5.65	2
0	4826	5.65	1
0	4833	5.7	1
0	4834	5.7	2
0	4835	5.7	1
0	4836	5.7	1
0	4837	5.7	2
0	4838	5.7	1
0	4864	5.75	1
0	4865	5.75	2
0	4866	5.75	1
0	4873	5.8	1
0	4874	5.8	2
0	4875	5.8	1
0	4876	5.8	1
0	4877	5.8	2
0	4878	5.8	1
0	4891	5.85	1
0	4892	5.85	2
0	4893	5.85	1
0	4900	5.9	1
0	4901	5.9	2
0	4902	5.9	1
0	4903	5.9	1
0	4904	5.9	2
0	4905	5.9	1
0	4918	5.95	1
0	4919	5.95	2
0	4920	5.95	1
0	4927	6	1
0	4928	6	2
0	4929	6	1
0	4930	6	1
0	4931	6	2
0	4932	6	1
0	4945	6.05	1
0	4946	6.05	2
0	4947	6.05	1
0	4954	6.1	1
0	4955	6.1	2
0	4956	6.1	1
0	4957	6.1	1
0	4958	6.1	2
0	4959	6.1	1
0	4985	6.15	1
0	4986	6.15	2
0	4987	6.15	1
0	4994	6.2	1
0	4995	6.2	2
0	4996	6.2	1
0	4997	6.2	1
0	4998	6.2	2
0	4999	6.2	1
0	5012	6.25	1
0	5013	6.25	2
0	5014	6.25	1
0	5034	6.3	1
0	5035	6.3	2
0	5036	6.3	1
0	5037	6.3	1
0	5038	6.3	2
0	5039	6.3	1
0	5052	6.35	1
0	5053	6.35	2
0	5054	6.35	1
0	5061	6.4	1
0	5062	6.4	2
0	5063	6.4	1
0	5064	6.4	1
0	5065	6.4	2
0	5066	6.4	1
0	5079	6.45	1
0	5080	6.45	2
0	5081	6.45	1
0	5088	6.5	1
0	5089	6.5	2
0	5090	6.5	1
0	5091	6.5	1
0	5092	6.5	2
0	5093	6.5	1
0	5106	6.55	1
0	5107	6.55	2
0	5108	6.55	1
0	5115	6.6	1
0	5116	6.6	2
0	5117	6.6	1
0	5118	6.6	1
0	5119	6.6	2
0	5120	6.6	1
0	5133	6.65	1
0	5134	6.65	2
0	5135	6.65	1
0	5168	6.7	1
0	5169	6.7	2
0	5170	6.7	1
0	5171	6.7	1
0	5172	6.7	2
0	5173	6.7	1
0	5186	6.75	1
0	5187	6.75	2
0	5188	6.75	1
0	5195	6.8	1
0	5196	6.8	2
0	5197	6.8	1
0	5198	6.8	1
0	5199	6.8	2
0	5200	6.8	1
0	5239	6.85	1
0	5240	6.85	2
0	5241	6.85	1
0	5248	6.9	1
0	5249	6.9	2
0	5250	6.9	1
0	5251	6.9	1
0	5252	6.9	2
0	5253	6.9	1
0	5266	6.95	1
0	5267	6.95	2
0	5268	6.95	1
0	5275	7	1
0	5276	7	2
0	5277	7	1
0	5278	7	1
0	5279	7	2
0	5280	7	1
0	5293	7.05	1
0	5294	7.05	2
0	5295	7.05	1
0	5302	7.1	1
0	5303	7.1	2
0	5304	7.1	1
0	5305	7.1	1
0	5306	7.1	2
0	5307	7.1	1
0	5320	7.15	1
0	5321	7.15	2
0	5322	7.15	1
0	5329	7.2	1
0	5330	7.2	2
0	5331	7.2	1
0	5332	7.2	1
0	5333	7.2	2
0	5334	7.2	1
0	5578	7.25	1
0	5579	7.25	2
0	5580	7.25	1
0	5627	7.3	1
0	5628	7.3	2
0	5629	7.3	1
0	5630	7.3	1
0	5631	7.3	2
0	5632	7.3	1
0	5681	7.35	1
0	5682	7.35	2
0	5683	7.35	1
0	5742	7.4	1
0	5743	7.4	2
0	5744	7.4	1
0	5745	7.4	1
0	5746	7.4	2
0	5747	7.4	1
0	5800	7.45	1
0	5801	7.45	2
0	5802	7.45	1
0	5839	7.5	1
0	5840	7.5	2
0	5841	7.5	1
0	5842	7.5	1
0	5843	7.5	2
0	5844	7.5	1
0	5897	7.55	1
0	5898	7.55	2
0	5899	7.55	1
0	5942	7.6	1
0	5943	7.6	2
0	5944	7.6	1
0	5945	7.6	1
0	5946	7.6	2
0	5947	7.6	1
0	5994	7.65	1
0	5995	7.65	2
0	5996	7.65	1
0	6043	7.7	1
0	6044	7.7	2
0	6045	7.7	1
0	6046	7.7	1
0	6047	7.7	2
0	6048	7.7	1
0	6091	7.75	1
0	6092	7.75	2
0	6093	7.75	1
0	6144	7.8	1
0	6145	7.8	2
0	6146	7.8	1
0	6147	7.8	1
0	6148	7.8	2
0	6149	7.8	1
0	6202	7.85	1
0	6203	7.85	2
0	6204	7.85	1
0	6232	7.9	1
0	6233	7.9	2
0	6234	7.9	1
0	6235	7.9	1
0	6236	7.9	2
0	6237	7.9	1
0	6290	7.95	1
0	6291	7.95	2
0	6292	7.95	1
0	6335	8	1
0	6336	8	2
0	6337	8	1
0	6338	8	1
0	6339	8	2
0	6340	8	1
0	6387	8.05	1
0	6388	8.05	2
0	6389	8.05	1
0	6427	8.1	1
0	6428	8.1	2
0	6429	8.1	1
0	6430	8.1	1
0	6431	8.1	2
0	6432	8.1	1
0	6472	8.15	1
0	6473	8.15	2
0	6474	8.15	1
0	6521	8.2	1
0	6522	8.2	2
0	6523	8.2	1
0	6524	8.2	1
0	6525	8.2	2
0	6526	8.2	1
0	6575	8.25	1
0	6576	8.25	2
0	6577	8.25	1
0	6615	8.3	1
0	6616	8.3	2
0	6617	8.3	1
0	6618	8.3	1
0	6619	8.3	2
0	6620	8.3	1
0	6673	8.35	1
0	6674	8.35	2
0	6675	8.35	1
0	6712	8.4	1
0	6713	8.4	2
0	6714	8.4	1
0	6715	8.4	1
0	6716	8.4	2
0	6717	8.4	1
0	6770	8.45	1
0	6771	8.45	2
0	6772	8.45	1
0	6815	8.5	1
0	6816	8.5	2
0	6817	8.5	1
0	6818	8.5	1
0	6819	8.5	2
0	6820	8.5	1
0	6867	8.55	1
0	6868	8.55	2
0	6869	8.55	1
0	6916	8.6	1
0	6917	8.6	2
0	6918	8.6	1
0	6919	8.6	1
0	6920	8.6	2
0	6921	8.6	1
0	6966	8.65	1
0	6967	8.65	2
0	6968	8.65	1
0	6977	8.7	1
0	6978	8.7	2
0	6979	8.7	1
0	6980	8.7	1
0	6981	8.7	2
0	6982	8.7	1
0	6995	8.75	1
0	6996	8.75	2
0	6997	8.75	1
0	7004	8.8	1
0	7005	8.8	2
0	7006	8.8	1
0	7007	8.8	1
0	7008	8.8	2
0	7009	8.8	1
0	7022	8.85	1
0	7023	8.85	2
0	7024	8.85	1
0	7031	8.9	1
0	7032	8.9	2
0	7033	8.9	1
0	7034	8.9	1
0	7035	8.9	2
0	7036	8.9	1
0	7075	8.95	1
0	7076	8.95	2
0	7077	8.95	1
0	7084	9	1
0	7085	9	2
0	7086	9	1
0	7087	9	1
0	7088	9	2
0	7089	9	1
0	7102	9.05	1
0	7103	9.05	2
0	7104	9.05	1
0	7157	9.1	1
0	7158	9.1	2
0	7159	9.1	1
0	7160	9.1	1
0	7161	9.1	2
0	7162	9.1	1
0	7215	9.15	1
0	7216	9.15	2
0	7217	9.15	1
0	7224	9.2	1
0	7225	9.2	2
0	7226	9.2	1
0	7227	9.2	1
0	7228	9.2	2
0	7229	9.2	1
0	7242	9.25	1
0	7243	9.25	2
0	7244	9.25	1
0	7251	9.3	1
0	7252	9.3	2
0	7253	9.3	1
0	7254	9.3	1
0	7255	9.3	2
0	7256	9.3	1
0	7269	9.35	1
0	7270	9.35	2
0	7271	9.35	1
0	7278	9.4	1
0	7279	9.4	2
0	7280	9.4	1
0	7281	9.4	1
0	7282	9.4	2
0	7283	9.4	1
0	7296	9.45	1
0	7297	9.45	2
0	7298	9.45	1
0	7331	9.5	1
0	7332	9.5	2
0	7333	9.5	1
0	7334	9.5	1
0	7335	9.5	2
0	7336	9.5	1
0	7349	9.55	1
0	7350	9.55	2
0	7351	9.55	1
0	7358	9.6	1
0	7359	9.6	2
0	7360	9.6	1
0	7361	9.6	1
0	7362	9.6	2
0	7363	9.6	1
0	7402	9.65	1
0	7403	9.65	2
0	7404	9.65	1
0	7411	9.7	1
0	7412	9.7	2
0	7413	9.7	1
0	7414	9.7	1
0	7415	9.7	2
0	7416	9.7	1
0	7429	9.75	1
0	7430	9.75	2
0	7431	9.75	1
0	7438	9.8	1
0	7439	9.8	2
0	7440	9.8	1
0	7441	9.8	1
0	7442	9.8	2
0	7443	9.8	1
0	7456	9.85	1
0	7457	9.85	2
0	7458	9.85	1
0	7465	9.9	1
0	7466	9.9	2
0	7467	9.9	1
0	7468	9.9	1
0	7469	9.9	2
0	7470	9.9	1
0	7483	9.95	1
0	7484	9.95	2
0	7485	9.95	1
0	7492	10	1
0	7493	10	2
0	7494	10	1
0	7495	10	1
0	7496	10	2
0	7497	10	1
0	7526	10.05	1
0	7527	10.05	2
0	7528	10.05	1
0	7535	10.1	1
0	7536	10.1	2
0	7537	10.1	1
0	7538	10.1	1
0	7539	10.1	2
0	7540	10.1	1
0	7553	10.15	1
0	7554	10.15	2
0	7555	10.15	1
0	7575	10.2	1
0	7576	10.2	2
0	7577	10.2	1
0	7578	10.2	1
0	7579	10.2	2
0	7580	10.2	1
0	7593	10.25	1
0	7594	10.25	2
0	7595	10.25	1
0	7602	10.3	1
0	7603	10.3	2
0	7604	10.3	1
0	7605	10.3	1
0	7606	10.3	2
0	7607	10.3	1
0	7620	10.35	1
0	7621	10.35	2
0	7622	10.35	1
0	7629	10.4	1
0	7630	10.4	2
0	7631	10.4	1
0	7632	10.4	1
0	7633	10.4	2
0	7634	10.4	1
0	7647	10.45	1
0	7648	10.45	2
0	7649	10.45	1
0	7656	10.5	1
0	7657	10.5	2
0	7658	10.5	1
0	7659	10.5	1
0	7660	10.5	2
0	7661	10.5	1
0	7674	10.55	1
0	7675	10.55	2
0	7676	10.55	1
0	7696	10.6	1
0	7697	10.6	2
0	7698	10.6	1
0	7699	10.6	1
0	7700	10.6	2
0	7701	10.6	1
0	7714	10.65	1
0	7715	10.65	2
0	7716	10.65	1
0	7723	10.7	1
0	7724	10.7	2
0	7725	10.7	1
0	7726	10.7	1
0	7727	10.7	2
0	7728	10.7	1
0	7754	10.75	1
0	7755	10.75	2
0	7756	10.75	1
0	7763	10.8	1
0	7764	10.8	2
0	7765	10.8	1
0	7766	10.8	1
0	7767	10.8	2
0	7768	10.8	1
0	7781	10.85	1
0	7782	10.85	2
0	7783	10.85	1
0	7790	10.9	1
0	7791	10.9	2
0	7792	10.9	1
0	7793	10.9	1
0	7794	10.9	2
0	7795	10.9	1
0	7808	10.95	1
0	7809	10.95	2
0	7810	10.95	1
0	7817	11	1
0	7818	11	2
0	7819	11	1
0	7820	11	1
0	7821	11	2
0	7822	11	1
0	7835	11.05	1
0	7836	11.05	2
0	7837	11.05	1
0	7844	11.1	1
0	7845	11.1	2
0	7846	11.1	1
0	7847	11.1	1
0	7848	11.1	2
0	7849	11.1	1
0	7865	11.15	1
0	7866	11.15	2
0	7867	11.15	1
0	7874	11.2	1
0	7875	11.2	2
0	7876	11.2	1
0	7877	11.2	1
0	7878	11.2	2
0	7879	11.2	1
0	7905	11.25	1
0	7906	11.25	2
0	7907	11.25	1
0	7914	11.3	1
0	7915	11.3	2
0	7916	11.3	1
0	7917	11.3	1
0	7918	11.3	2
0	7919	11.3	1
0	7932	11.35	1
0	7933	11.35	2
0	7934	11.35	1
0	7954	11.4	1
0	7955	11.4	2
0	7956	11.4	1
0	7957	11.4	1
0	7958	11.4	2
0	7959	11.4	1
0	7972	11.45	1
0	7973	11.45	2
0	7974	11.45	1
0	7981	11.5	1
0	7982	11.5	2
0	7983	11.5	1
0	7984	11.5	1
0	7985	11.5	2
0	7986	11.5	1
0	7999	11.55	1
0	8000	11.55	2
0	8001	11.55	1
0	8008	11.6	1
0	8009	11.6	2
0	8010	11.6	1
0	8011	11.6	1
0	8012	11.6	2
0	8013	11.6	1
0	8026	11.65	1
0	8027	11.65	2
0	8028	11.65	1
0	8035	11.7	1
0	8036	11.7	2
0	8037	11.7	1
0	8038	11.7	1
0	8039	11.7	2
0	8040	11.7	1
0	8053	11.75	1
0	8054	11.75	2
0	8055	11.75	1
0	8075	11.8	1
0	8076	11.8	2
0	8077	11.8	1
0	8078	11.8	1
0	8079	11.8	2
0	8080	11.8	1
0	8093	11.85	1
0	8094	11.85	2
0	8095	11.85	1
0	8102	11.9	1
0	8103	11.9	2
0	8104	11.9	1
0	8105	11.9	1
0	8106	11.9	2
0	8107	11.9	1
0	8133	11.95	1
0	8134	11.95	2
0	8135	11.95	1
0	8142	12	1
0	8143	12	2
0	8144	12	1
0	8145	12	1
0	8146	12	2
0	8147	12	1
0	8160	12.05	1
0	8161	12.05	2
0	8162	12.05	1
0	8169	12.1	1
0	8170	12.1	2
0	8171	12.1	1
0	8172	12.1	1
0	8173	12.1	2
0	8174	12.1	1
0	8187	12.15	1
0	8188	12.15	2
0	8189	12.15	1
0	8196	12.2	1
0	8197	12.2	2
0	8198	12.2	1
0	8199	12.2	1
0	8200	12.2	2
0	8201	12.2	1
0	8214	12.25	1
0	8215	12.25	2
0	8216	12.25	1
0	8223	12.3	1
0	8224	12.3	2
0	8225	12.3	1
0	8226	12.3	1
0	8227	12.3	2
0	8228	12.3	1
0	8257	12.35	1
0	8258	12.35	2
0	8259	12.35	1
0	8266	12.4	1
0	8267	12.4	2
0	8268	12.4	1
0	8269	12.4	1
0	8270	12.4	2
0	8271	12.4	1
0	8284	12.45	1
0	8285	12.45	2
0	8286	12.45	1
0	8306	12.5	1
0	8307	12.5	2
0	8308	12.5	1
0	8309	12.5	1
0	8310	12.5	2
0	8311	12.5	1
0	8324	12.55	1
0	8325	12.55	2
0	8326	12.55	1
0	8333	12.6	1
0	8334	12.6	2
0	8335	12.6	1
0	8336	12.6	1
0	8337	12.6	2
0	8338	12.6	1
0	8351	12.65	1
0	8352	12.65	2
0	8353	12.65	1
0	8360	12.7	1
0	8361	12.7	2
0	8362	12.7	1
0	8363	12.7	1
0	8364	12.7	2
0	8365	12.7	1
0	8378	12.75	1
0	8379	12.75	2
0	8380	12.75	1
0	8387	12.8	1
0	8388	12.8	2
0	8389	12.8	1
0	8390	12.8	1
0	8391	12.8	2
0	8392	12.8	1
0	8405	12.85	1
0	8406	12.85	2
0	8407	12.85	1
0	8427	12.9	1
0	8428	12.9	2
0	8429	12.9	1
0	8430	12.9	1
0	8431	12.9	2
0	8432	12.9	1
0	8445	12.95	1
0	8446	12.95	2
0	8447	12.95	1
0	8454	13	1
0	8455	13	2
0	8456	13	1
0	8457	13	1
0	8458	13	2
0	8459	13	1
0	8485	13.05	1
0	8486	13.05	2
0	8487	13.05	1
0	8494	13.1	1
0	8495	13.1	2
0	8496	13.1	1
0	8497	13.1	1
0	8498	13.1	2
0	8499	13.1	1
0	8512	13.15	1
0	8513	13.15	2
0	8514	13.15	1
0	8521	13.2	1
0	8522	13.2	2
0	8523	13.2	1
0	8524	13.2	1
0	8525	13.2	2
0	8526	13.2	1
0	8539	13.25	1
0	8540	13.25	2
0	8541	13.25	1
0	8548	13.3	1
0	8549	13.3	2
0	8550	13.3	1
0	8551	13.3	1
0	8552	13.3	2
0	8553	13.3	1
0	8566	13.35	1
0	8567	13.35	2
0	8568	13.35	1
0	8575	13.4	1
0	8576	13.4	2
0	8577	13.4	1
0	8578	13.4	1
0	8579	13.4	2
0	8580	13.4	1
0	8606	13.45	1
0	8607	13.45	2
0	8608	13.45	1
0	8615	13.5	1
0	8616	13.5	2
0	8617	13.5	1
0	8618	13.5	1
0	8619	13.5	2
0	8620	13.5	1
0	8646	13.55	1
0	8647	13.55	2
0	8648	13.55	1
0	8658	13.6	1
0	8659	13.6	2
0	8660	13.6	1
0	8661	13.6	1
0	8662	13.6	2
0	8663	13.6	1
0	8676	13.65	1
0	8677	13.65	2
0	8678	13.65	1
0	8698	13.7	1
0	8699	13.7	2
0	8700	13.7	1
0	8701	13.7	1
0	8702	13.7	2
0	8703	13.7	1
0	8716	13.75	1
0	8717	13.75	2
0	8718	13.75	1
0	8725	13.8	1
0	8726	13.8	2
0	8727	13.8	1
0	8728	13.8	1
0	8729	13.8	2
0	8730	13.8	1
0	8743	13.85	1
0	8744	13.85	2
0	8745	13.85	1
0	8752	13.9	1
0	8753	13.9	2
0	8754	13.9	1
0	8755	13.9	1
0	8756	13.9	2
0	8757	13.9	1
0	8770	13.95	1
0	8771	13.95	2
0	8772	13.95	1
0	8779	14	1
0	8780	14	2
0	8781	14	1
0	8782	14	1
0	8783	14	2
0	8784	14	1
0	8797	14.05	1
0	8798	14.05	2
0	8799	14.05	1
0	8819	14.1	1
0	8820	14.1	2
0	8821	14.1	1
0	8822	14.1	1
0	8823	14.1	2
0	8824	14.1	1
0	8837	14.15	1
0	8838	14.15	2
0	8839	14.15	1
0	8846	14.2	1
0	8847	14.2	2
0	8848	14.2	1
0	8849	14.2	1
0	8850	14.2	2
0	8851	14.2	1
0	8877	14.25	1
0	8878	14.25	2
0	8879	14.25	1
0	8886	14.3	1
0	8887	14.3	2
0	8888	14.3	1
0	8889	14.3	1
0	8890	14.3	2
0	8891	14.3	1
0	8904	14.35	1
0	8905	14.35	2
0	8906	14.35	1
0	8913	14.4	1
0	8914	14.4	2
0	8915	14.4	1
0	8916	14.4	1
0	8917	14.4	2
0	8918	14.4	1
0	8931	14.45	1
0	8932	14.45	2
0	8933	14.45	1
0	8940	14.5	1
0	8941	14.5	2
0	8942	14.5	1
0	8943	14.5	1
0	8944	14.5	2
0	8945	14.5	1
0	8958	14.55	1
0	8959	14.55	2
0	8960	14.55	1
0	8967	14.6	1
0	8968	14.6	2
0	8969	14.6	1
0	8970	14.6	1
0	8971	14.6	2
0	8972	14.6	1
0	8998	14.65	1
0	8999	14.65	2
0	9000	14.65	1
0	9007	14.7	1
0	9008	14.7	2
0	9009	14.7	1
0	9010	14.7	1
0	9011	14.7	2
0	9012	14.7	1
0	9025	14.75	1
0	9026	14.75	2
0	9027	14.75	1
0	9047	14.8	1
0	9048	14.8	2
0	9049	14.8	1
0	9050	14.8	1
0	9051	14.8	2
0	9052	14.8	1
0	9065	14.85	1
0	9066	14.85	2
0	9067	14.85	1
0	9074	14.9	1
0	9075	14.9	2
0	9076	14.9	1
0	9077	14.9	1
0	9078	14.9	2
0	9079	14.9	1
0	9092	14.95	1
0	9093	14.95	2
0	9094	14.95	1
0	9101	15	1
0	9102	15	2
0	9103	15	1
0	9104	15	1
0	9105	15	2
0	9106	15	1
0	9132	15.05	1
0	9133	15.05	2
0	9134	15.05	1
0	9141	15.1	1
0	9142	15.1	2
0	9143	15.1	1
0	9144	15.1	1
0	9145	15.1	2
0	9146	15.1	1
0	9159	15.15	1
0	9160	15.15	2
0	9161	15.15	1
0	9194	15.2	1
0	9195	15.2	2
0	9196	15.2	1
0	9197	15.2	1
0	9198	15.2	2
0	9199	15.2	1
0	9212	15.25	1
0	9213	15.25	2
0	9214	15.25	1
0	9221	15.3	1
0	9222	15.3	2
0	9223	15.3	1
0	9224	15.3	1
0	9225	15.3	2
0	9226	15.3	1
0	9249	15.35	1
0	9250	15.35	2
0	9251	15.35	1
0	9258	15.4	1
0	9259	15.4	2
0	9260	15.4	1
0	9261	15.4	1
0	9262	15.4	2
0	9263	15.4	1
0	9276	15.45	1
0	9277	15.45	2
0	9278	15.45	1
0	9285	15.5	1
0	9286	15.5	2
0	9287	15.5	1
0	9288	15.5	1
0	9289	15.5	2
0	9290	15.5	1
0	9303	15.55	1
0	9304	15.55	2
0	9305	15.55	1
0	9325	15.6	1
0	9326	15.6	2
0	9327	15.6	1
0	9328	15.6	1
0	9329	15.6	2
0	9330	15.6	1
0	9343	15.65	1
0	9344	15.65	2
0	9345	15.65	1
0	9352	15.7	1
0	9353	15.7	2
0	9354	15.7	1
0	9355	15.7	1
0	9356	15.7	2
0	9357	15.7	1
0	9396	15.75	1
0	9397	15.75	2
0	9398	15.75	1
0	9405	15.8	1
0	9406	15.8	2
0	9407	15.8	1
0	9408	15.8	1
0	9409	15.8	2
0	9410	15.8	1
0	9423	15.85	1
0	9424	15.85	2
0	9425	15.85	1
0	9445	15.9	1
0	9446	15.9	2
0	9447	15.9	1
0	9448	15.9	1
0	9449	15.9	2
0	9450	15.9	1
0	9463	15.95	1
0	9464	15.95	2
0	9465	15.95	1
0	9472	16	1
0	9473	16	2
0	9474	16	1
0	9475	16	1
0	9476	16	2
0	9477	16	1
0	9490	16.05	1
0	9491	16.05	2
0	9492	16.05	1
0	9512	16.1	1
0	9513	16.1	2
0	9514	16.1	1
0	9515	16.1	1
0	9516	16.1	2
0	9517	16.1	1
0	9530	16.15	1
0	9531	16.15	2
0	9532	16.15	1
0	9539	16.2	1
0	9540	16.2	2
0	9541	16.2	1
0	9542	16.2	1
0	9543	16.2	2
0	9544	16.2	1
0	9557	16.25	1
0	9558	16.25	2
0	9559	16.25	1
0	9592	16.3	1
0	9593	16.3	2
0	9594	16.3	1
0	9595	16.3	1
0	9596	16.3	2
0	9597	16.3	1
0	9610	16.35	1
0	9611	16.35	2
0	9612	16.35	1
0	9619	16.4	1
0	9620	16.4	2
0	9621	16.4	1
0	9622	16.4	1
0	9623	16.4	2
0	9624	16.4	1
0	9650	16.45	1
0	9651	16.45	2
0	9652	16.45	1
0	9659	16.5	1
0	9660	16.5	2
0	9661	16.5	1
0	9662	16.5	1
0	9663	16.5	2
0	9664	16.5	1
0	9677	16.55	1
0	9678	16.55	2
0	9679	16.55	1
0	9686	16.6	1
0	9687	16.6	2
0	9688	16.6	1
0	9689	16.6	1
0	9690	16.6	2
0	9691	16.6	1
0	9717	16.65	1
0	9718	16.65	2
0	9719	16.65	1
0	9726	16.7	1
0	9727	16.7	2
0	9728	16.7	1
0	9729	16.7	1
0	9730	16.7	2
0	9731	16.7	1
0	9744	16.75	1
0	9745	16.75	2
0	9746	16.75	1
0	9753	16.8	1
0	9754	16.8	2
0	9755	16.8	1
0	9756	16.8	1
0	9757	16.8	2
0	9758	16.8	1
0	9797	16.85	1
0	9798	16.85	2
0	9799	16.85	1
0	9806	16.9	1
0	9807	16.9	2
0	9808	16.9	1
0	9809	16.9	1
0	9810	16.9	2
0	9811	16.9	1
0	9824	16.95	1
0	9825	16.95	2
0	9826	16.95	1
0	9846	17	1
0	9847	17	2
0	9848	17	1
0	9849	17	1
0	9850	17	2
0	9851	17	1
0	9864	17.05	1
0	9865	17.05	2
0	9866	17.05	1
0	9873	17.1	1
0	9874	17.1	2
0	9875	17.1	1
0	9876	17.1	1
0	9877	17.1	2
0	9878	17.1	1
0	9891	17.15	1
0	9892	17.15	2
0	9893	17.15	1
0	9913	17.2	1
0	9914	17.2	2
0	9915	17.2	1
0	9916	17.2	1
0	9917	17.2	2
0	9918	17.2	1
0	9931	17.25	1
0	9932	17.25	2
0	9933	17.25	1
0	9940	17.3	1
0	9941	17.3	2
0	9942	17.3	1
0	9943	17.3	1
0	9944	17.3	2
0	9945	17.3	1
0	9958	17.35	1
0	9959	17.35	2
0	9960	17.35	1
0	9993	17.4	1
0	9994	17.4	2
0	9995	17.4	1
0	9996	17.4	1
0	9997	17.4	2
0	9998	17.4	1
0	10011	17.45	1
0	10012	17.45	2
0	10013	17.45	1
0	10020	17.5	1
0	10021	17.5	2
0	10022	17.5	1
0	10023	17.5	1
0	10024	17.5	2
0	10025	17.5	1
0	10048	17.55	1
0	10049	17.55	2
0	10050	17.55	1
0	10057	17.6	1
0	10058	17.6	2
0	10059	17.6	1
0	10060	17.6	1
0	10061	17.6	2
0	10062	17.6	1
0	10075	17.65	1
0	10076	17.65	2
0	10077	17.65	1
0	10084	17.7	1
0	10085	17.7	2
0	10086	17.7	1
0	10087	17.7	1
0	10088	17.7	2
0	10089	17.7	1
0	10115	17.75	1
0	10116	17.75	2
0	10117	17.75	1
0	10124	17.8	1
0	10125	17.8	2
0	10126	17.8	1
0	10127	17.8	1
0	10128	17.8	2
0	10129	17.8	1
0	10142	17.85	1
0	10143	17.85	2
0	10144	17.85	1
0	10151	17.9	1
0	10152	17.9	2
0	10153	17.9	1
0	10154	17.9	1
0	10155	17.9	2
0	10156	17.9	1
0	10192	17.95	1
0	10193	17.95	2
0	10194	17.95	1
0	10201	18	1
0	10202	18	2
0	10203	18	1
0	10204	18	1
0	10205	18	2
0	10206	18	1
0	10219	18.05	1
0	10220	18.05	2
0	10221	18.05	1
0	10238	18.1	1
0	10239	18.1	2
0	10240	18.1	1
0	10241	18.1	1
0	10242	18.1	2
0	10243	18.1	1
0	10256	18.15	1
0	10257	18.15	2
0	10258	18.15	1
0	10265	18.2	1
0	10266	18.2	2
0	10267	18.2	1
0	10268	18.2	1
0	10269	18.2	2
0	10270	18.2	1
0	10283	18.25	1
0	10284	18.25	2
0	10285	18.25	1
0	10305	18.3	1
0	10306	18.3	2
0	10307	18.3	1
0	10308	18.3	1
0	10309	18.3	2
0	10310	18.3	1
0	10323	18.35	1
0	10324	18.35	2
0	10325	18.35	1
0	10332	18.4	1
0	10333	18.4	2
0	10334	18.4	1
0	10335	18.4	1
0	10336	18.4	2
0	10337	18.4	1
0	10350	18.45	1
0	10351	18.45	2
0	10352	18.45	1
0	10385	18.5	1
0	10386	18.5	2
0	10387	18.5	1
0	10388	18.5	1
0	10389	18.5	2
0	10390	18.5	1
0	10403	18.55	1
0	10404	18.55	2
0	10405	18.55	1
0	10412	18.6	1
0	10413	18.6	2
0	10414	18.6	1
0	10415	18.6	1
0	10416	18.6	2
0	10417	18.6	1
0	10443	18.65	1
0	10444	18.65	2
0	10445	18.65	1
0	10452	18.7	1
0	10453	18.7	2
0	10454	18.7	1
0	10455	18.7	1
0	10456	18.7	2
0	10457	18.7	1
0	10470	18.75	1
0	10471	18.75	2
0	10472	18.75	1
0	10479	18.8	1
0	10480	18.8	2
0	10481	18.8	1
0	10482	18.8	1
0	10483	18.8	2
0	10484	18.8	1
0	10510	18.85	1
0	10511	18.85	2
0	10512	18.85	1
0	10519	18.9	1
0	10520	18.9	2
0	10521	18.9	1
0	10522	18.9	1
0	10523	18.9	2
0	10524	18.9	1
0	10537	18.95	1
0	10538	18.95	2
0	10539	18.95	1
0	10546	19	1
0	10547	19	2
0	10548	19	1
0	10549	19	1
0	10550	19	2
0	10551	19	1
0	10590	19.05	1
0	10591	19.05	2
0	10592	19.05	1
0	10599	19.1	1
0	10600	19.1	2
0	10601	19.1	1
0	10602	19.1	1
0	10603	19.1	2
0	10604	19.1	1
0	10617	19.15	1
0	10618	19.15	2
0	10619	19.15	1
0	10639	19.2	1
0	10640	19.2	2
0	10641	19.2	1
0	10642	19.2	1
0	10643	19.2	2
0	10644	19.2	1
0	10657	19.25	1
0	10658	19.25	2
0	10659	19.25	1
0	10666	19.3	1
0	10667	19.3	2
0	10668	19.3	1
0	10669	19.3	1
0	10670	19.3	2
0	10671	19.3	1
0	10684	19.35	1
0	10685	19.35	2
0	10686	19.35	1
0	10706	19.4	1
0	10707	19.4	2
0	10708	19.4	1
0	10709	19.4	1
0	10710	19.4	2
0	10711	19.4	1
0	10724	19.45	1
0	10725	19.45	2
0	10726	19.45	1
0	10733	19.5	1
0	10734	19.5	2
0	10735	19.5	1
0	10736	19.5	1
0	10737	19.5	2
0	10738	19.5	1
0	10751	19.55	1
0	10752	19.55	2
0	10753	19.55	1
0	10786	19.6	1
0	10787	19.6	2
0	10788	19.6	1
0	10789	19.6	1
0	10790	19.6	2
0	10791	19.6	1
0	10804	19.65	1
0	10805	19.65	2
0	10806	19.65	1
0	10813	19.7	1
0	10814	19.7	2
0	10815	19.7	1
0	10816	19.7	1
0	10817	19.7	2
0	10818	19.7	1
0	10844	19.75	1
0	10845	19.75	2
0	10846	19.75	1
0	10853	19.8	1
0	10854	19.8	2
0	10855	19.8	1
0	10856	19.8	1
0	10857	19.8	2
0	10858	19.8	1
0	10871	19.85	1
0	10872	19.85	2
0	10873	19.85	1
0	10880	19.9	1
0	10881	19.9	2
0	10882	19.9	1
0	10883	19.9	1
0	10884	19.9	2
0	10885	19.9	1
0	10911	19.95	1
0	10912	19.95	2
0	10913	19.95	1
0	10920	20	1
0	10921	20	2
0	10922	20	1
0	10923	20	1
0	10924	20	2
0	10925	20	1
1	19	0.1	-nan
1	21	0.1	-nan
1	41	0.101	-nan
1	42	0.101	-nan
1	45	0.102	-nan
1	46	0.102	-nan
1	49	0.103	-nan
1	50	0.103	-nan
1	53	0.104	-nan
1	54	0.104	-nan
1	57	0.105	-nan
1	58	0.105	-nan
1	61	0.106	-nan
1	62	0.106	-nan
1	65	0.107	-nan
1	66	0.107	-nan
1	69	0.108	-nan
1	70	0.108	-nan
1	73	0.109	-nan
1	74	0.109	-nan
1	77	0.11	-nan
1	78	0.11	-nan
1	81	0.111	-nan
1	82	0.111	-nan
1	85	0.112	-nan
1	86	0.112	-nan
1	89	0.113	-nan
1	90	0.113	-nan
1	93	0.114	-nan
1	94	0.114	-nan
1	97	0.115	-nan
1	98	0.115	-nan
1	101	0.116	-nan
1	102	0.116	-nan
1	105	0.117	-nan
1	106	0.117	-nan
1	109	0.118	-nan
1	110	0.118	-nan
1	113	0.119	-nan
1	114	0.119	-nan
1	117	0.12	-nan
1	118	0.12	-nan
1	121	0.121	-nan
1	122	0.121	-nan
1	125	0.122	-nan
1	126	0.122	-nan
1	129	0.123	-nan
1	130	0.123	-nan
1	133	0.124	-nan
1	134	0.124	-nan
1	137	0.125	-nan
1	138	0.125	-nan
1	141	0.126	-nan
1	142	0.126	-nan
1	145	0.127	-nan
1	146	0.127	-nan
1	149	0.128	-nan
1	150	0.128	-nan
1	153	0.129	-nan
1	154	0.129	-nan
1	157	0.13	-nan
1	158	0.13	-nan
1	161	0.131	-nan
1	162	0.131	-nan
1	165	0.132	-nan
1	166	0.132	-nan
1	169	0.133	-nan
1	170	0.133	-nan
1	173	0.134	-nan
1	174	0.134	-nan
1	177	0.135	-nan
1	178	0.135	-nan
1	181	0.136	-nan
1	182	0.136	-nan
1	185	0.137	-nan
1	186	0.137	-nan
1	189	0.138	-nan
1	190	0.138	-nan
1	193	0.139	-nan
1	194	0.139	-nan
1	197	0.14	-nan
1	198	0.14	-nan
1	201	0.141	-nan
1	202	0.141	-nan
1	205	0.142	-nan
1	206	0.142	-nan
1	209	0.143	-nan
1	210	0.143	-nan
1	213	0.144	-nan
1	214	0.144	-nan
1	217	0.145	-nan
1	218	0.145	-nan
1	221	0.146	-nan
1	222	0.146	-nan
1	225	0.147	-nan
1	226	0.147	-nan
1	229	0.148	-nan
1	230	0.148	-nan
1	233	0.149	-nan
1	234	0.149	-nan
1	240	0.15	-nan
1	241	0.15	-nan
1	250	0.151	-nan
1	251	0.151	-nan
1	254	0.152	-nan
1	255	0.152	-nan
1	258	0.153	-nan
1	259	0.153	-nan
1	262	0.154	-nan
1	263	0.154	-nan
1	266	0.155	-nan
1	267	0.155	-nan
1	270	0.156	-nan
1	271	0.156	-nan
1	274	0.157	-nan
1	275	0.157	-nan
1	278	0.158	-nan
1	279	0.158	-nan
1	282	0.159	-nan
1	283	0.159	-nan
1	286	0.16	-nan
1	287	0.16	-nan
1	290	0.161	-nan
1	291	0.161	-nan
1	294	0.162	-nan
1	295	0.162	-nan
1	298	0.163	-nan
1	299	0.163	-nan
1	302	0.164	-nan
1	303	0.164	-nan
1	306	0.165	-nan
1	307	0.165	-nan
1	310	0.166	-nan
1	311	0.166	-nan
1	314	0.167	-nan
1	315	0.167	-nan
1	318	0.168	-nan
1	319	0.168	-nan
1	322	0.169	-nan
1	323	0.169	-nan
1	326	0.17	-nan
1	327	0.17	-nan
1	330	0.171	-nan
1	331	0.171	-nan
1	334	0.172	-nan
1	335	0.172	-nan
1	338	0.173	-nan
1	339	0.173	-nan
1	342	0.174	-nan
1	343	0.174	-nan
1	346	0.175	-nan
1	347	0.175	-nan
1	350	0.176	-nan
1	351	0.176	-nan
1	354	0.177	-nan
1	355	0.177	-nan
1	358	0.178	-nan
1	359	0.178	-nan
1	362	0.179	-nan
1	363	0.179	-nan
1	366	0.18	-nan
1	367	0.18	-nan
1	370	0.181	-nan
1	371	0.181	-nan
1	374	0.182	-nan
1	375	0.182	-nan
1	378	0.183	-nan
1	379	0.183	-nan
1	382	0.184	-nan
1	383	0.184	-nan
1	386	0.185	-nan
1	387	0.185	-nan
1	390	0.186	-nan
1	391	0.186	-nan
1	394	0.187	-nan
1	395	0.187	-nan
1	398	0.188	-nan
1	399	0.188	-nan
1	402	0.189	-nan
1	403	0.189	-nan
1	406	0.19	-nan
1	407	0.19	-nan
1	410	0.191	-nan
1	411	0.191	-nan
1	414	0.192	-nan
1	415	0.192	-nan
1	418	0.193	-nan
1	419	0.193	-nan
1	422	0.194	-nan
1	423	0.194	-nan
1	426	0.195	-nan
1	427	0.195	-nan
1	430	0.196	-nan
1	431	0.196	-nan
1	434	0.197	-nan
1	435	0.197	-nan
1	438	0.198	-nan
1	439	0.198	-nan
1	442	0.199	-nan
1	443	0.199	-nan
2	962	1.142624192201	141
2	981	1.156464192201	282
2	991	1.170304192201	423
2	1001	1.184144192201	564
2	1011	1.197984192201	705
2	1039	1.211824192201	846
2	1049	1.225664192201	987
2	1059	1.239504192201	1128
2	1078	1.253344192201	1269
2	1088	1.267184192201	1410
2	1098	1.281024192201	1551
2	1108	1.294864192201	1692
2	1136	1.308704192201	1833
2	1146	1.322544192201	1974
2	1156	1.336384192201	2115
2	1175	1.350224192201	2256
2	1185	1.364064192201	2397
2	1195	1.377904192201	2538
2	1205	1.391744192201	2679
2	1234	1.419424192201	2820
2	1244	1.433264192201	2961
2	1254	1.447104192201	3102
2	1273	1.460944192201	3243
2	1283	1.474784192201	3384
2	1293	1.488624192201	3525
2	1318	1.502464192201	3666
2	1328	1.516304192201	3807
2	1338	1.530144192201	3948
2	1348	1.543984192201	4089
2	1367	1.557824192201	4230
2	1377	1.571664192201	4371
2	1388	1.599344192201	4512
2	1416	1.613184192201	4653
2	1426	1.627024192201	4794
2	1436	1.640864192201	4935
2	1463	1.654704192201	5076
2	1487	1.668544192201	5217
2	1497	1.682384192201	5358
2	1507	1.696224192201	5499
2	1532	1.710064192201	5640
2	1542	1.723904192201	5781
2	1552	1.737744192201	5922
2	1571	1.751584192201	6063
2	1581	1.765424192201	6204
2	1592	1.793104192201	6345
2	1620	1.806944192201	6486
2	1630	1.820784192201	6627
2	1637	1.834624192201	6768
2	1647	1.848464192201	6909
2	1666	1.862304192201	7050
2	1676	1.876144192201	7191
2	1686	1.889984192201	7332
2	1714	1.903824192201	7473
2	1724	1.917664192201	7614
2	1734	1.931504192201	7755
2	1744	1.945344192201	7896
2	1760	1.959184192201	8037
2	1770	1.973024192201	8178
2	1780	1.986864192201	8319
2	1808	2.000704192201	8460
2	1815	2.014544192201	8601
2	1825	2.028384192201	8742
2	1835	2.042224192201	8883
2	1854	2.056064192201	9024
2	1864	2.069904192201	9165
2	1874	2.083744192201	9306
2	1884	2.097584192201	9447
2	1912	2.111424192201	9588
2	1922	2.125264192201	9729
2	1932	2.139104192201	9870
2	1948	2.152944192201	10011
2	1958	2.166784192201	10152
2	1968	2.180624192201	10293
2	1978	2.194464192201	10434
2	2010	2.208304192201	10575
2	2020	2.222144192201	10716
2	2030	2.235984192201	10857
2	2040	2.249824192201	10998
2	2059	2.263664192201	11139
2	2069	2.277504192201	11280
2	2079	2.291344192201	11421
2	2107	2.305184192201	11562
2	2117	2.319024192201	11703
2	2127	2.332864192201	11844
2	2137	2.346704192201	11985
2	2156	2.360544192201	12126
2	2166	2.374384192201	12267
2	2176	2.388224192201	12408
2	2205	2.415904192201	12549
2	2215	2.429744192201	12690
2	2225	2.443584192201	12831
2	2244	2.457424192201	12972
2	2254	2.471264192201	13113
2	2264	2.485104192201	13254
2	2274	2.498944192201	13395
2	2302	2.512784192201	13536
2	2367	2.579413385287	13677
2	2377	2.593253385287	13818
2	2405	2.607093385287	13959
2	2412	2.620933385287	14100
2	2422	2.634773385287	14241
2	2432	2.648613385287	14382
2	2448	2.662453385287	14523
2	2458	2.676293385287	14664
2	2468	2.690133385287	14805
2	2500	2.703973385287	14946
2	2733	2.742293385287	15087
2	2752	2.756133385287	15228
2	2762	2.769973385287	15369
2	2772	2.783813385287	15510
2	2779	2.797653385287	15651
2	2807	2.811493385287	15792
2	2817	2.825333385287	15933
2	2827	2.839173385287	16074
2	2850	2.853013385287	16215
2	2863	2.866853385287	16356
2	2888	2.880693385287	16497
2	2898	2.894533385287	16638
2	2926	2.908373385287	16779
2	2936	2.922213385287	16920
2	2946	2.936053385287	17061
2	2956	2.949893385287	17202
2	2975	2.963733385287	17343
2	2985	2.977573385287	17484
2	2992	2.991413385287	17625
2	3020	3.005253385287	17766
2	3030	3.019093385287	17907
2	3040	3.032933385287	18048
2	3050	3.046773385287	18189
2	3069	3.060613385287	18330
2	3080	3.088293385287	18471
2	3106	3.115973385287	18612
2	3116	3.129813385287	18753
2	3126	3.143653385287	18894
2	3142	3.157493385287	19035
2	3152	3.171333385287	19176
2	3162	3.185173385287	19317
2	3172	3.199013385287	19458
2	3200	3.212853385287	19599
2	3210	3.226693385287	19740
2	3220	3.240533385287	19881
2	3243	3.254373385287	20022
2	3264	3.268213385287	20163
2	3274	3.282053385287	20304
2	3284	3.295893385287	20445
2	3312	3.309733385287	20586
2	3322	3.323573385287	20727
2	3332	3.337413385287	20868
2	3351	3.351253385287	21009
2	3358	3.365093385287	21150
2	3368	3.378933385287	21291
2	3378	3.392773385287	21432
2	3408	3.406613385287	21573
2	3429	3.420453385287	21714
2	3439	3.434293385287	21855
2	3449	3.448133385287	21996
2	3469	3.475813385287	22137
2	3479	3.489653385287	22278
2	3507	3.503493385287	22419
2	3517	3.517333385287	22560
2	3527	3.531173385287	22701
2	3547	3.558853385287	22842
2	3558	3.586533385287	22983
2	3583	3.600373385287	23124
2	3593	3.614213385287	23265
2	3603	3.628053385287	23406
2	3613	3.641893385287	23547
2	3632	3.655733385287	23688
2	3642	3.669573385287	23829
2	3652	3.683413385287	23970
2	3662	3.697253385287	24111
2	3690	3.711093385287	24252
2	3700	3.724933385287	24393
2	3710	3.738773385287	24534
2	3729	3.752613385287	24675
2	3739	3.766453385287	24816
2	3749	3.780293385287	24957
2	3759	3.794133385287	25098
2	3789	3.807973385287	25239
2	3810	3.821813385287	25380
2	3820	3.835653385287	25521
2	3830	3.849493385287	25662
2	3849	3.863333385287	25803
2	3859	3.877173385287	25944
2	3888	3.904853385287	26085
2	3898	3.918693385287	26226
2	3908	3.932533385287	26367
2	3918	3.946373385287	26508
2	3946	3.960213385287	26649
2	3960	3.974053385287	26790
2	3970	3.987893385287	26931
2	3998	4.001733385287	27072
2	4005	4.015573385287	27213
2	4015	4.029413385287	27354
2	4025	4.043253385287	27495
2	4041	4.057093385287	27636
2	4051	4.070933385287	27777
2	4061	4.084773385287	27918
2	4068	4.098613385287	28059
2	4317	4.628453385287	28200
2	4327	4.642293385287	28341
2	4346	4.656133385287	28482
2	4356	4.669973385287	28623
2	4364	4.697653385287	28764
2	4392	4.711493385287	28905
2	4402	4.725333385287	29046
2	4412	4.739173385287	29187
2	4431	4.753013385287	29328
2	4441	4.766853385287	29469
2	4451	4.780693385287	29610
2	4461	4.794533385287	29751
2	4489	4.808373385287	29892
2	4499	4.822213385287	30033
2	4509	4.836053385287	30174
2	4665	5.178453385287	30315
2	4675	5.192293385287	30456
2	5590	7.251973385287	30597
2	5600	7.265813385287	30738
2	5610	7.279653385287	30879
2	5620	7.293493385287	31020
2	5648	7.307333385287	31161
2	5658	7.321173385287	31302
2	5668	7.335013385287	31443
2	5678	7.348853385287	31584
2	5715	7.362693385287	31725
2	5725	7.376533385287	31866
2	5735	7.390373385287	32007
2	5763	7.404213385287	32148
2	5773	7.418053385287	32289
2	5783	7.431893385287	32430
2	5793	7.445733385287	32571
2	5812	7.459573385287	32712
2	5822	7.473413385287	32853
2	5832	7.487253385287	32994
2	5860	7.501093385287	33135
2	5870	7.514933385287	33276
2	5880	7.528773385287	33417
2	5890	7.542613385287	33558
2	5909	7.556453385287	33699
2	5919	7.570293385287	33840
2	5929	7.584133385287	33981
2	5939	7.597973385287	34122
2	5967	7.611813385287	34263
2	5977	7.625653385287	34404
2	5987	7.639493385287	34545
2	6006	7.653333385287	34686
2	6016	7.667173385287	34827
2	6026	7.681013385287	34968
2	6036	7.694853385287	35109
2	6064	7.708693385287	35250
2	6074	7.722533385287	35391
2	6084	7.736373385287	35532
2	6107	7.750213385287	35673
2	6117	7.764053385287	35814
2	6127	7.777893385287	35955
2	6137	7.791733385287	36096
2	6165	7.805573385287	36237
2	6175	7.819413385287	36378
2	6185	7.833253385287	36519
2	6195	7.847093385287	36660
2	6215	7.874773385287	36801
2	6225	7.888613385287	36942
2	6253	7.902453385287	37083
2	6263	7.916293385287	37224
2	6273	7.930133385287	37365
2	6283	7.943973385287	37506
2	6302	7.957813385287	37647
2	6312	7.971653385287	37788
2	6322	7.985493385287	37929
2	6332	7.999333385287	38070
2	6360	8.013173385287	38211
2	6370	8.027013385287	38352
2	6380	8.040853385287	38493
2	6399	8.054693385287	38634
2	6410	8.082373385287	38775
2	6420	8.096213385287	38916
2	6448	8.110053385287	39057
2	6458	8.123893385287	39198
2	6465	8.137733385287	39339
2	6484	8.151573385287	39480
2	6494	8.165413385287	39621
2	6504	8.179253385287	39762
2	6514	8.193093385287	39903
2	6542	8.206933385287	40044
2	6552	8.220773385287	40185
2	6562	8.234613385287	40326
2	6572	8.248453385287	40467
2	6591	8.262293385287	40608
2	6598	8.276133385287	40749
2	6608	8.289973385287	40890
2	6636	8.303813385287	41031
2	6646	8.317653385287	41172
2	6656	8.331493385287	41313
2	6666	8.345333385287	41454
2	6685	8.359173385287	41595
2	6695	8.373013385287	41736
2	6705	8.386853385287	41877
2	6733	8.400693385287	42018
2	6743	8.414533385287	42159
2	6753	8.428373385287	42300
2	6763	8.442213385287	42441
2	6782	8.456053385287	42582
2	6792	8.469893385287	42723
2	6802	8.483733385287	42864
2	6812	8.497573385287	43005
2	6840	8.511413385287	43146
2	6850	8.525253385287	43287
2	6860	8.539093385287	43428
2	6879	8.552933385287	43569
2	6889	8.566773385287	43710
2	6899	8.580613385287	43851
2	6909	8.594453385287	43992
2	6937	8.608293385287	44133
2	6947	8.622133385287	44274
2	6957	8.635973385287	44415
2	7150	9.088133385287	44556
2	7178	9.101973385287	44697
2	7188	9.115813385287	44838
2	7198	9.129653385287	44979
2	7208	9.143493385287	45120
3	962	1.142624192201	141
3	981	1.156464192201	282
3	991	1.170304192201	423
3	1001	1.184144192201	564
3	1011	1.197984192201	705
3	1039	1.211824192201	846
3	1049	1.225664192201	987
3	1059	1.239504192201	1128
3	1078	1.253344192201	1269
3	1088	1.267184192201	1410
3	1098	1.281024192201	1551
3	1108	1.294864192201	1692
3	1136	1.308704192201	1833
3	1146	1.322544192201	1974
3	1156	1.336384192201	2115
3	1175	1.350224192201	2256
3	1185	1.364064192201	2397
3	1195	1.377904192201	2538
3	1205	1.391744192201	2679
3	1234	1.419424192201	2820
3	1244	1.433264192201	2961
3	1254	1.447104192201	3102
3	1273	1.460944192201	3243
3	1283	1.474784192201	3384
3	1293	1.488624192201	3525
3	1318	1.502464192201	3666
3	1328	1.516304192201	3807
3	1338	1.530144192201	3948
3	1348	1.543984192201	4089
3	1367	1.557824192201	4230
3	1377	1.571664192201	4371
3	1388	1.599344192201	4512
3	1416	1.613184192201	4653
3	1426	1.627024192201	4794
3	1436	1.640864192201	4935
3	1463	1.654704192201	5076
3	1487	1.668544192201	5217
3	1497	1.682384192201	5358
3	1507	1.696224192201	5499
3	1532	1.710064192201	5640
3	1542	1.723904192201	5781
3	1552	1.737744192201	5922
3	1571	1.751584192201	6063
3	1581	1.765424192201	6204
3	1592	1.793104192201	6345
3	1620	1.806944192201	6486
3	1630	1.820784192201	6627
3	1637	1.834624192201	6768
3	1647	1.848464192201	6909
3	1666	1.862304192201	7050
3	1676	1.876144192201	7191
3	1686	1.889984192201	7332
3	1714	1.903824192201	7473
3	1724	1.917664192201	7614
3	1734	1.931504192201	7755
3	1744	1.945344192201	7896
3	1760	1.959184192201	8037
3	1770	1.973024192201	8178
3	1780	1.986864192201	8319
3	1808	2.000704192201	8460
3	1815	2.014544192201	8601
3	1825	2.028384192201	8742
3	1835	2.042224192201	8883
3	1854	2.056064192201	9024
3	1864	2.069904192201	9165
3	1874	2.083744192201	9306
3	1884	2.097584192201	9447
3	1912	2.111424192201	9588
3	1922	2.125264192201	9729
3	1932	2.139104192201	9870
3	1948	2.152944192201	10011
3	1958	2.166784192201	10152
3	1968	2.180624192201	10293
3	1978	2.194464192201	10434
3	2010	2.208304192201	10575
3	2020	2.222144192201	10716
3	2030	2.235984192201	10857
3	2040	2.249824192201	10998
3	2059	2.263664192201	11139
3	2069	2.277504192201	11280
3	2079	2.291344192201	11421
3	2107	2.305184192201	11562
3	2117	2.319024192201	11703
3	2127	2.332864192201	11844
3	2137	2.346704192201	11985
3	2156	2.360544192201	12126
3	2166	2.374384192201	12267
3	2176	2.388224192201	12408
3	2205	2.415904192201	12549
3	2215	2.429744192201	12690
3	2225	2.443584192201	12831
3	2244	2.457424192201	12972
3	2254	2.471264192201	13113
3	2264	2.485104192201	13254
3	2274	2.498944192201	13395
3	2302	2.512784192201	13536
3	2367	2.579413385287	13677
3	2377	2.593253385287	13818
3	2405	2.607093385287	13959
3	2412	2.620933385287	14100
3	2422	2.634773385287	14241
3	2432	2.648613385287	14382
3	2448	2.662453385287	14523
3	2458	2.676293385287	14664
3	2468	2.690133385287	14805
3	2500	2.703973385287	14946
3	2733	2.742293385287	15087
3	2752	2.756133385287	15228
3	2762	2.769973385287	15369
3	2772	2.783813385287	15510
3	2779	2.797653385287	15651
3	2807	2.811493385287	15792
3	2817	2.825333385287	15933
3	2827	2.839173385287	16074
3	2850	2.853013385287	16215
3	2863	2.866853385287	16356
3	2888	2.880693385287	16497
3	2898	2.894533385287	16638
3	2926	2.908373385287	16779
3	2936	2.922213385287	16920
3	2946	2.936053385287	17061
3	2956	2.949893385287	17202
3	2975	2.963733385287	17343
3	2985	2.977573385287	17484
3	2992	2.991413385287	17625
3	3020	3.005253385287	17766
3	3030	3.019093385287	17907
3	3040	3.032933385287	18048
3	3050	3.046773385287	18189
3	3069	3.060613385287	18330
3	3080	3.088293385287	18471
3	3106	3.115973385287	18612
3	3116	3.129813385287	18753
3	3126	3.143653385287	18894
3	3142	3.157493385287	19035
3	3152	3.171333385287	19176
3	3162	3.185173385287	19317
3	3172	3.199013385287	19458
3	3200	3.212853385287	19599
3	3210	3.226693385287	19740
3	3220	3.240533385287	19881
3	3243	3.254373385287	20022
3	3264	3.268213385287	20163
3	3274	3.282053385287	20304
3	3284	3.295893385287	20445
3	3312	3.309733385287	20586
3	3322	3.323573385287	20727
3	3332	3.337413385287	20868
3	3351	3.351253385287	21009
3	3358	3.365093385287	21150
3	3368	3.378933385287	21291
3	3378	3.392773385287	21432
3	3408	3.406613385287	21573
3	3429	3.420453385287	21714
3	3439	3.434293385287	21855
3	3449	3.448133385287	21996
3	3469	3.475813385287	22137
3	3479	3.489653385287	22278
3	3507	3.503493385287	22419
3	3517	3.517333385287	22560
3	3527	3.531173385287	22701
3	3547	3.558853385287	22842
3	3558	3.586533385287	22983
3	3583	3.600373385287	23124
3	3593	3.614213385287	23265
3	3603	3.628053385287	23406
3	3613	3.641893385287	23547
3	3632	3.655733385287	23688
3	3642	3.669573385287	23829
3	3652	3.683413385287	23970
3	3662	3.697253385287	24111
3	3690	3.711093385287	24252
3	3700	3.724933385287	24393
3	3710	3.738773385287	24534
3	3729	3.752613385287	24675
3	3739	3.766453385287	24816
3	3749	3.780293385287	24957
3	3759	3.794133385287	25098
3	3789	3.807973385287	25239
3	3810	3.821813385287	25380
3	3820	3.835653385287	25521
3	3830	3.849493385287	25662
3	3849	3.863333385287	25803
3	3859	3.877173385287	25944
3	3888	3.904853385287	26085
3	3898	3.918693385287	26226
3	3908	3.932533385287	26367
3	3918	3.946373385287	26508
3	3946	3.960213385287	26649
3	3960	3.974053385287	26790
3	3970	3.987893385287	26931
3	3998	4.001733385287	27072
3	4005	4.015573385287	27213
3	4015	4.029413385287	27354
3	4025	4.043253385287	27495
3	4041	4.057093385287	27636
3	4051	4.070933385287	27777
3	4061	4.084773385287	27918
3	4068	4.098613385287	28059
3	4317	4.628453385287	28200
3	4327	4.642293385287	28341
3	4346	4.656133385287	28482
3	4356	4.669973385287	28623
3	4364	4.697653385287	28764
3	4392	4.711493385287	28905
3	4402	4.725333385287	29046
3	4412	4.739173385287	29187
3	4431	4.753013385287	29328
3	4441	4.766853385287	29469
3	4451	4.780693385287	29610
3	4461	4.794533385287	29751
3	4489	4.808373385287	29892
3	4499	4.822213385287	30033
3	4509	4.836053385287	30174
3	4665	5.178453385287	30315
3	4675	5.192293385287	30456
3	5590	7.251973385287	30597
3	5600	7.265813385287	30738
3	5610	7.279653385287	30879
3	5620	7.293493385287	31020
3	5648	7.307333385287	31161
3	5658	7.321173385287	31302
3	5668	7.335013385287	31443
3	5678	7.348853385287	31584
3	5715	7.362693385287	31725
3	5725	7.376533385287	31866
3	5735	7.390373385287	32007
3	5763	7.404213385287	32148
3	5773	7.418053385287	32289
3	5783	7.431893385287	32430
3	5793	7.445733385287	32571
3	5812	7.459573385287	32712
3	5822	7.473413385287	32853
3	5832	7.487253385287	32994
3	5860	7.501093385287	33135
3	5870	7.514933385287	33276
3	5880	7.528773385287	33417
3	5890	7.542613385287	33558
3	5909	7.556453385287	33699
3	5919	7.570293385287	33840
3	5929	7.584133385287	33981
3	5939	7.597973385287	34122
3	5967	7.611813385287	34263
3	5977	7.625653385287	34404
3	5987	7.639493385287	34545
3	6006	7.653333385287	34686
3	6016	7.667173385287	34827
3	6026	7.681013385287	34968
3	6036	7.694853385287	35109
3	6064	7.708693385287	35250
3	6074	7.722533385287	35391
3	6084	7.736373385287	35532
3	6107	7.750213385287	35673
3	6117	7.764053385287	35814
3	6127	7.777893385287	35955
3	6137	7.791733385287	36096
3	6165	7.805573385287	36237
3	6175	7.819413385287	36378
3	6185	7.833253385287	36519
3	6195	7.847093385287	36660
3	6215	7.874773385287	36801
3	6225	7.888613385287	36942
3	6253	7.902453385287	37083
3	6263	7.916293385287	37224
3	6273	7.930133385287	37365
3	6283	7.943973385287	37506
3	6302	7.957813385287	37647
3	6312	7.971653385287	37788
3	6322	7.985493385287	37929
3	6332	7.999333385287	38070
3	6360	8.013173385287	38211
3	6370	8.027013385287	38352
3	6380	8.040853385287	38493
3	6399	8.054693385287	38634
3	6410	8.082373385287	38775
3	6420	8.096213385287	38916
3	6448	8.110053385287	39057
3	6458	8.123893385287	39198
3	6465	8.137733385287	39339
3	6484	8.151573385287	39480
3	6494	8.165413385287	39621
3	6504	8.179253385287	39762
3	6514	8.193093385287	39903
3	6542	8.206933385287	40044
3	6552	8.220773385287	40185
3	6562	8.234613385287	40326
3	6572	8.248453385287	40467
3	6591	8.262293385287	40608
3	6598	8.276133385287	40749
3	6608	8.289973385287	40890
3	6636	8.303813385287	41031
3	6646	8.317653385287	41172
3	6656	8.331493385287	41313
3	6666	8.345333385287	41454
3	6685	8.359173385287	41595
3	6695	8.373013385287	41736
3	6705	8.386853385287	41877
3	6733	8.400693385287	42018
3	6743	8.414533385287	42159
3	6753	8.428373385287	42300
3	6763	8.442213385287	42441
3	6782	8.456053385287	42582
3	6792	8.469893385287	42723
3	6802	8.483733385287	42864
3	6812	8.497573385287	43005
3	6840	8.511413385287	43146
3	6850	8.525253385287	43287
3	6860	8.539093385287	43428
3	6879	8.552933385287	43569
3	6889	8.566773385287	43710
3	6899	8.580613385287	43851
3	6909	8.594453385287	43992
3	6937	8.608293385287	44133
3	6947	8.622133385287	44274
3	6957	8.635973385287	44415
3	7150	9.088133385287	44556
3	7178	9.101973385287	44697
3	7188	9.115813385287	44838
3	7198	9.129653385287	44979
3	7208	9.143493385287	45120

