version 2
run A2-0-20190914-23:11:34-21347
attr configname A2
attr datetime 20190914-23:11:34
attr experiment A2
attr inifile SimV2.ini
attr iterationvars ""
attr iterationvarsf ""
attr measurement ""
attr network NetworkTormV2
attr processid 21347
attr repetition 0
attr replication #0
attr resultdir results
attr runnumber 0
attr seedset 0
param **.mobility.traceFile "\"paths/A.movements\""
param **.numNodes 3
param **.wirelessIfc.wirelessRange 40m
param **.bluetoothIfc.wirelessRange 40m
param **application.nodesGenMsg "\"0,1\""
param **.numNodes 2
param **.application.usedRNG 1
param **.application.dataGenerationInterval 1ms
param **.application.dataSizeInBytes 10
param **.application.ttl 999999s
param **application.destinationAddr "\"Wf:00:00:00:00:02\""
param **application.destinationBTAddr "\"Bt:00:00:00:00:02\""
param **application.nodesThatGen true
param **application.nodesGenMsg "\"0\""
param **application.startMultipleMsg true
param **application.numMultipleMsg 100
param **application.hopsListSize 50
param **.routingLayer "\"RoutingLayer\""
param **.routing.maximumCacheSize 5000byte
param **.routing.maximumHopCount 25
param **.routing.useTTL false
param **.routing.waitBFsend 0.5
param **.routing.max_age 999999s
param **.neighboring.antiEntropyInterval 500ms
param **.neighboring.maximumRandomBackoffDuration 1s
param **.neighboring.delayPerDataMsg 0.1
param **neighboring.usedRNG 2
param **.neighboring.GWAddr "\"02:00:00:00:00:09\""
param **.neighboring.sendWifiFirst true
param **.neighboring.maxLengthGraph 20
param **.neighboring.max_age 999999s
param **.wirelessIfc.wirelessRange 15m
param **.wirelessIfc.neighbourScanInterval 50ms
param **.wirelessIfc.bandwidthBitRate 100000bps
param **.wirelessIfc.wirelessHeaderSize 32byte
param **.wirelessIfc.minSSI -90
param **.bluetoothIfc.wirelessRange 15m
param **.bluetoothIfc.neighbourScanInterval 100ms
param **.bluetoothIfc.bandwidthBitRate 100000bps
param **.bluetoothIfc.wirelessHeaderSize 16byte
param **.bluetoothIfc.minSSI -90
param **.mobilityType "\"BonnMotionMobility\""
param **.mobility.traceFile "\"paths/Moves2.movements\""
param **.mobility.is3D false
param **.mobility.nodeId -1

vector 0 NetworkTormV2 neighbourhoodSize:vector ETV
attr source neighbourhoodSize
vector 1 NetworkTormV2 deliveryRatio:vector ETV
attr source sum(totalDataBytesReceived)/sum(totalDataBytesReceivableByAllNodes)
vector 2 NetworkTormV2 dataBytesReceivedSum:vector ETV
attr source sum(dataBytesReceived)
vector 3 NetworkTormV2 totalBytesReceivedSum:vector ETV
attr source sum(totalBytesReceived)
0	10	0.05	1
0	11	0.05	2
0	12	0.05	1
0	20	0.1	1
0	22	0.1	2
0	23	0.1	1
0	24	0.1	1
0	25	0.1	2
0	26	0.1	1
0	237	0.15	1
0	238	0.15	2
0	239	0.15	1
0	446	0.2	1
0	447	0.2	2
0	448	0.2	1
0	449	0.2	1
0	450	0.2	2
0	451	0.2	1
0	464	0.25	1
0	465	0.25	2
0	466	0.25	1
0	473	0.3	1
0	474	0.3	2
0	475	0.3	1
0	476	0.3	1
0	477	0.3	2
0	478	0.3	1
0	491	0.35	1
0	492	0.35	2
0	493	0.35	1
0	500	0.4	1
0	501	0.4	2
0	502	0.4	1
0	503	0.4	1
0	504	0.4	2
0	505	0.4	1
0	518	0.45	1
0	519	0.45	2
0	520	0.45	1
0	527	0.5	1
0	528	0.5	2
0	529	0.5	1
0	530	0.5	1
0	531	0.5	2
0	532	0.5	1
0	545	0.55	1
0	546	0.55	2
0	547	0.55	1
0	554	0.6	1
0	555	0.6	2
0	556	0.6	1
0	557	0.6	1
0	558	0.6	2
0	559	0.6	1
0	572	0.65	1
0	573	0.65	2
0	574	0.65	1
0	581	0.7	1
0	582	0.7	2
0	583	0.7	1
0	584	0.7	1
0	585	0.7	2
0	586	0.7	1
0	599	0.75	1
0	600	0.75	2
0	601	0.75	1
0	608	0.8	1
0	609	0.8	2
0	610	0.8	1
0	611	0.8	1
0	612	0.8	2
0	613	0.8	1
0	626	0.85	1
0	627	0.85	2
0	628	0.85	1
0	635	0.9	1
0	636	0.9	2
0	637	0.9	1
0	638	0.9	1
0	639	0.9	2
0	640	0.9	1
0	653	0.95	1
0	654	0.95	2
0	655	0.95	1
0	662	1	1
0	663	1	2
0	664	1	1
0	665	1	1
0	666	1	2
0	667	1	1
0	680	1.05	1
0	681	1.05	2
0	682	1.05	1
0	689	1.1	1
0	690	1.1	2
0	691	1.1	1
0	692	1.1	1
0	693	1.1	2
0	694	1.1	1
0	967	1.15	1
0	968	1.15	2
0	969	1.15	1
0	1012	1.2	1
0	1013	1.2	2
0	1014	1.2	1
0	1015	1.2	1
0	1016	1.2	2
0	1017	1.2	1
0	1064	1.25	1
0	1065	1.25	2
0	1066	1.25	1
0	1113	1.3	1
0	1114	1.3	2
0	1115	1.3	1
0	1116	1.3	1
0	1117	1.3	2
0	1118	1.3	1
0	1161	1.35	1
0	1162	1.35	2
0	1163	1.35	1
0	1210	1.4	1
0	1211	1.4	2
0	1212	1.4	1
0	1213	1.4	1
0	1214	1.4	2
0	1215	1.4	1
0	1259	1.45	1
0	1260	1.45	2
0	1261	1.45	1
0	1295	1.5	1
0	1296	1.5	2
0	1297	1.5	1
0	1298	1.5	1
0	1299	1.5	2
0	1300	1.5	1
0	1353	1.55	1
0	1354	1.55	2
0	1355	1.55	1
0	1389	1.6	1
0	1390	1.6	2
0	1391	1.6	1
0	1392	1.6	1
0	1393	1.6	2
0	1394	1.6	1
0	1441	1.65	1
0	1442	1.65	2
0	1443	1.65	1
0	1509	1.7	1
0	1510	1.7	2
0	1511	1.7	1
0	1512	1.7	1
0	1513	1.7	2
0	1514	1.7	1
0	1557	1.75	1
0	1558	1.75	2
0	1559	1.75	1
0	1597	1.8	1
0	1598	1.8	2
0	1599	1.8	1
0	1600	1.8	1
0	1601	1.8	2
0	1602	1.8	1
0	1648	1.85	1
0	1649	1.85	2
0	1650	1.85	1
0	1691	1.9	1
0	1692	1.9	2
0	1693	1.9	1
0	1694	1.9	1
0	1695	1.9	2
0	1696	1.9	1
0	1746	1.95	1
0	1747	1.95	2
0	1748	1.95	1
0	1785	2	1
0	1786	2	2
0	1787	2	1
0	1788	2	1
0	1789	2	2
0	1790	2	1
0	1840	2.05	1
0	1841	2.05	2
0	1842	2.05	1
0	1885	2.1	1
0	1886	2.1	2
0	1887	2.1	1
0	1888	2.1	1
0	1889	2.1	2
0	1890	2.1	1
0	1934	2.15	1
0	1935	2.15	2
0	1936	2.15	1
0	1983	2.2	1
0	1984	2.2	2
0	1985	2.2	1
0	1986	2.2	1
0	1987	2.2	2
0	1988	2.2	1
0	2041	2.25	1
0	2042	2.25	2
0	2043	2.25	1
0	2084	2.3	1
0	2085	2.3	2
0	2086	2.3	1
0	2087	2.3	1
0	2088	2.3	2
0	2089	2.3	1
0	2142	2.35	1
0	2143	2.35	2
0	2144	2.35	1
0	2181	2.4	1
0	2182	2.4	2
0	2183	2.4	1
0	2184	2.4	1
0	2185	2.4	2
0	2186	2.4	1
0	2230	2.45	1
0	2231	2.45	2
0	2232	2.45	1
0	2275	2.5	1
0	2276	2.5	2
0	2277	2.5	1
0	2278	2.5	1
0	2279	2.5	2
0	2280	2.5	1
0	2567	2.55	1
0	2568	2.55	2
0	2569	2.55	1
0	2622	2.6	1
0	2623	2.6	2
0	2624	2.6	1
0	2625	2.6	1
0	2626	2.6	2
0	2627	2.6	1
0	2699	2.65	1
0	2700	2.65	2
0	2701	2.65	1
0	2778	2.7	1
0	2779	2.7	2
0	2780	2.7	1
0	2781	2.7	1
0	2782	2.7	2
0	2783	2.7	1
0	2864	2.75	1
0	2865	2.75	2
0	2866	2.75	1
0	2909	2.8	1
0	2910	2.8	2
0	2911	2.8	1
0	2912	2.8	1
0	2913	2.8	2
0	2914	2.8	1
0	2965	2.85	1
0	2966	2.85	2
0	2967	2.85	1
0	3011	2.9	1
0	3012	2.9	2
0	3013	2.9	1
0	3014	2.9	1
0	3015	2.9	2
0	3016	2.9	1
0	3047	2.95	1
0	3048	2.95	2
0	3049	2.95	1
0	3093	3	1
0	3094	3	2
0	3095	3	1
0	3096	3	1
0	3097	3	2
0	3098	3	1
0	3147	3.05	1
0	3148	3.05	2
0	3149	3.05	1
0	3190	3.1	1
0	3191	3.1	2
0	3192	3.1	1
0	3193	3.1	1
0	3194	3.1	2
0	3195	3.1	1
0	3248	3.15	1
0	3249	3.15	2
0	3250	3.15	1
0	3284	3.2	1
0	3285	3.2	2
0	3286	3.2	1
0	3287	3.2	1
0	3288	3.2	2
0	3289	3.2	1
0	3355	3.25	1
0	3356	3.25	2
0	3357	3.25	1
0	3395	3.3	1
0	3396	3.3	2
0	3397	3.3	1
0	3398	3.3	1
0	3399	3.3	2
0	3400	3.3	1
0	3443	3.35	1
0	3444	3.35	2
0	3445	3.35	1
0	3487	3.4	1
0	3488	3.4	2
0	3489	3.4	1
0	3490	3.4	1
0	3491	3.4	2
0	3492	3.4	1
0	3532	3.45	1
0	3533	3.45	2
0	3534	3.45	1
0	3581	3.5	1
0	3582	3.5	2
0	3583	3.5	1
0	3584	3.5	1
0	3585	3.5	2
0	3586	3.5	1
0	3639	3.55	1
0	3640	3.55	2
0	3641	3.55	1
0	3678	3.6	1
0	3679	3.6	2
0	3680	3.6	1
0	3681	3.6	1
0	3682	3.6	2
0	3683	3.6	1
0	3736	3.65	1
0	3737	3.65	2
0	3738	3.65	1
0	3781	3.7	1
0	3782	3.7	2
0	3783	3.7	1
0	3784	3.7	1
0	3785	3.7	2
0	3786	3.7	1
0	3824	3.75	1
0	3825	3.75	2
0	3826	3.75	1
0	3886	3.8	1
0	3887	3.8	2
0	3888	3.8	1
0	3889	3.8	1
0	3890	3.8	2
0	3891	3.8	1
0	3934	3.85	1
0	3935	3.85	2
0	3936	3.85	1
0	3980	3.9	1
0	3981	3.9	2
0	3982	3.9	1
0	3983	3.9	1
0	3984	3.9	2
0	3985	3.9	1
0	4077	3.95	1
0	4078	3.95	2
0	4079	3.95	1
0	4128	4	1
0	4129	4	2
0	4130	4	1
0	4131	4	1
0	4132	4	2
0	4133	4	1
0	4164	4.05	1
0	4165	4.05	2
0	4166	4.05	1
0	4213	4.1	1
0	4214	4.1	2
0	4215	4.1	1
0	4216	4.1	1
0	4217	4.1	2
0	4218	4.1	1
0	4276	4.15	1
0	4277	4.15	2
0	4278	4.15	1
0	4305	4.2	1
0	4306	4.2	2
0	4307	4.2	1
0	4308	4.2	1
0	4309	4.2	2
0	4310	4.2	1
0	4323	4.25	1
0	4324	4.25	2
0	4325	4.25	1
0	4332	4.3	1
0	4333	4.3	2
0	4334	4.3	1
0	4335	4.3	1
0	4336	4.3	2
0	4337	4.3	1
0	4363	4.35	1
0	4364	4.35	2
0	4365	4.35	1
0	4385	4.4	1
0	4386	4.4	2
0	4387	4.4	1
0	4388	4.4	1
0	4389	4.4	2
0	4390	4.4	1
0	4403	4.45	1
0	4404	4.45	2
0	4405	4.45	1
0	4425	4.5	1
0	4426	4.5	2
0	4427	4.5	1
0	4428	4.5	1
0	4429	4.5	2
0	4430	4.5	1
0	4456	4.55	1
0	4457	4.55	2
0	4458	4.55	1
0	4465	4.6	1
0	4466	4.6	2
0	4467	4.6	1
0	4468	4.6	1
0	4469	4.6	2
0	4470	4.6	1
0	4483	4.65	1
0	4484	4.65	2
0	4485	4.65	1
0	4492	4.7	1
0	4493	4.7	2
0	4494	4.7	1
0	4495	4.7	1
0	4496	4.7	2
0	4497	4.7	1
0	4510	4.75	1
0	4511	4.75	2
0	4512	4.75	1
0	4519	4.8	1
0	4520	4.8	2
0	4521	4.8	1
0	4522	4.8	1
0	4523	4.8	2
0	4524	4.8	1
0	4537	4.85	1
0	4538	4.85	2
0	4539	4.85	1
0	4559	4.9	1
0	4560	4.9	2
0	4561	4.9	1
0	4562	4.9	1
0	4563	4.9	2
0	4564	4.9	1
0	4590	4.95	1
0	4591	4.95	2
0	4592	4.95	1
0	4599	5	1
0	4600	5	2
0	4601	5	1
0	4602	5	1
0	4603	5	2
0	4604	5	1
0	4841	5.05	1
0	4842	5.05	2
0	4843	5.05	1
0	4895	5.1	1
0	4896	5.1	2
0	4897	5.1	1
0	4898	5.1	1
0	4899	5.1	2
0	4900	5.1	1
0	4947	5.15	1
0	4948	5.15	2
0	4949	5.15	1
0	4993	5.2	1
0	4994	5.2	2
0	4995	5.2	1
0	4996	5.2	1
0	4997	5.2	2
0	4998	5.2	1
0	5047	5.25	1
0	5048	5.25	2
0	5049	5.25	1
0	5090	5.3	1
0	5091	5.3	2
0	5092	5.3	1
0	5093	5.3	1
0	5094	5.3	2
0	5095	5.3	1
0	5148	5.35	1
0	5149	5.35	2
0	5150	5.35	1
0	5187	5.4	1
0	5188	5.4	2
0	5189	5.4	1
0	5190	5.4	1
0	5191	5.4	2
0	5192	5.4	1
0	5254	5.45	1
0	5255	5.45	2
0	5256	5.45	1
0	5301	5.5	1
0	5302	5.5	2
0	5303	5.5	1
0	5304	5.5	1
0	5305	5.5	2
0	5306	5.5	1
0	5353	5.55	1
0	5354	5.55	2
0	5355	5.55	1
0	5404	5.6	1
0	5405	5.6	2
0	5406	5.6	1
0	5407	5.6	1
0	5408	5.6	2
0	5409	5.6	1
0	5452	5.65	1
0	5453	5.65	2
0	5454	5.65	1
0	5501	5.7	1
0	5502	5.7	2
0	5503	5.7	1
0	5504	5.7	1
0	5505	5.7	2
0	5506	5.7	1
0	5555	5.75	1
0	5556	5.75	2
0	5557	5.75	1
0	5595	5.8	1
0	5596	5.8	2
0	5597	5.8	1
0	5598	5.8	1
0	5599	5.8	2
0	5600	5.8	1
0	5653	5.85	1
0	5654	5.85	2
0	5655	5.85	1
0	5692	5.9	1
0	5693	5.9	2
0	5694	5.9	1
0	5695	5.9	1
0	5696	5.9	2
0	5697	5.9	1
0	5750	5.95	1
0	5751	5.95	2
0	5752	5.95	1
0	5790	6	1
0	5791	6	2
0	5792	6	1
0	5793	6	1
0	5794	6	2
0	5795	6	1
0	5838	6.05	1
0	5839	6.05	2
0	5840	6.05	1
0	5884	6.1	1
0	5885	6.1	2
0	5886	6.1	1
0	5887	6.1	1
0	5888	6.1	2
0	5889	6.1	1
0	5938	6.15	1
0	5939	6.15	2
0	5940	6.15	1
0	5978	6.2	1
0	5979	6.2	2
0	5980	6.2	1
0	5981	6.2	1
0	5982	6.2	2
0	5983	6.2	1
0	6036	6.25	1
0	6037	6.25	2
0	6038	6.25	1
0	6075	6.3	1
0	6076	6.3	2
0	6077	6.3	1
0	6078	6.3	1
0	6079	6.3	2
0	6080	6.3	1
0	6133	6.35	1
0	6134	6.35	2
0	6135	6.35	1
0	6178	6.4	1
0	6179	6.4	2
0	6180	6.4	1
0	6181	6.4	1
0	6182	6.4	2
0	6183	6.4	1
0	6252	6.45	1
0	6253	6.45	2
0	6254	6.45	1
0	6291	6.5	1
0	6292	6.5	2
0	6293	6.5	1
0	6294	6.5	1
0	6295	6.5	2
0	6296	6.5	1
0	6329	6.55	1
0	6330	6.55	2
0	6331	6.55	1
0	6364	6.6	1
0	6365	6.6	2
0	6366	6.6	1
0	6367	6.6	1
0	6368	6.6	2
0	6369	6.6	1
0	6382	6.65	1
0	6383	6.65	2
0	6384	6.65	1
0	6391	6.7	1
0	6392	6.7	2
0	6393	6.7	1
0	6394	6.7	1
0	6395	6.7	2
0	6396	6.7	1
0	6435	6.75	1
0	6436	6.75	2
0	6437	6.75	1
0	6444	6.8	1
0	6445	6.8	2
0	6446	6.8	1
0	6447	6.8	1
0	6448	6.8	2
0	6449	6.8	1
0	6462	6.85	1
0	6463	6.85	2
0	6464	6.85	1
0	6471	6.9	1
0	6472	6.9	2
0	6473	6.9	1
0	6474	6.9	1
0	6475	6.9	2
0	6476	6.9	1
0	6489	6.95	1
0	6490	6.95	2
0	6491	6.95	1
0	6498	7	1
0	6499	7	2
0	6500	7	1
0	6501	7	1
0	6502	7	2
0	6503	7	1
0	6516	7.05	1
0	6517	7.05	2
0	6518	7.05	1
0	6525	7.1	1
0	6526	7.1	2
0	6527	7.1	1
0	6528	7.1	1
0	6529	7.1	2
0	6530	7.1	1
0	6569	7.15	1
0	6570	7.15	2
0	6571	7.15	1
0	6578	7.2	1
0	6579	7.2	2
0	6580	7.2	1
0	6581	7.2	1
0	6582	7.2	2
0	6583	7.2	1
0	6596	7.25	1
0	6597	7.25	2
0	6598	7.25	1
0	6631	7.3	1
0	6632	7.3	2
0	6633	7.3	1
0	6634	7.3	1
0	6635	7.3	2
0	6636	7.3	1
0	6649	7.35	1
0	6650	7.35	2
0	6651	7.35	1
0	6658	7.4	1
0	6659	7.4	2
0	6660	7.4	1
0	6661	7.4	1
0	6662	7.4	2
0	6663	7.4	1
0	6676	7.45	1
0	6677	7.45	2
0	6678	7.45	1
0	6685	7.5	1
0	6686	7.5	2
0	6687	7.5	1
0	6688	7.5	1
0	6689	7.5	2
0	6690	7.5	1
0	6703	7.55	1
0	6704	7.55	2
0	6705	7.55	1
0	6712	7.6	1
0	6713	7.6	2
0	6714	7.6	1
0	6715	7.6	1
0	6716	7.6	2
0	6717	7.6	1
0	6730	7.65	1
0	6731	7.65	2
0	6732	7.65	1
0	6765	7.7	1
0	6766	7.7	2
0	6767	7.7	1
0	6768	7.7	1
0	6769	7.7	2
0	6770	7.7	1
0	6783	7.75	1
0	6784	7.75	2
0	6785	7.75	1
0	6792	7.8	1
0	6793	7.8	2
0	6794	7.8	1
0	6795	7.8	1
0	6796	7.8	2
0	6797	7.8	1
0	6836	7.85	1
0	6837	7.85	2
0	6838	7.85	1
0	6845	7.9	1
0	6846	7.9	2
0	6847	7.9	1
0	6848	7.9	1
0	6849	7.9	2
0	6850	7.9	1
0	6863	7.95	1
0	6864	7.95	2
0	6865	7.95	1
0	6872	8	1
0	6873	8	2
0	6874	8	1
0	6875	8	1
0	6876	8	2
0	6877	8	1
0	6890	8.05	1
0	6891	8.05	2
0	6892	8.05	1
0	6899	8.1	1
0	6900	8.1	2
0	6901	8.1	1
0	6902	8.1	1
0	6903	8.1	2
0	6904	8.1	1
0	6917	8.15	1
0	6918	8.15	2
0	6919	8.15	1
0	6952	8.2	1
0	6953	8.2	2
0	6954	8.2	1
0	6955	8.2	1
0	6956	8.2	2
0	6957	8.2	1
0	6970	8.25	1
0	6971	8.25	2
0	6972	8.25	1
0	6979	8.3	1
0	6980	8.3	2
0	6981	8.3	1
0	6982	8.3	1
0	6983	8.3	2
0	6984	8.3	1
0	6997	8.35	1
0	6998	8.35	2
0	6999	8.35	1
0	7032	8.4	1
0	7033	8.4	2
0	7034	8.4	1
0	7035	8.4	1
0	7036	8.4	2
0	7037	8.4	1
0	7050	8.45	1
0	7051	8.45	2
0	7052	8.45	1
0	7059	8.5	1
0	7060	8.5	2
0	7061	8.5	1
0	7062	8.5	1
0	7063	8.5	2
0	7064	8.5	1
0	7077	8.55	1
0	7078	8.55	2
0	7079	8.55	1
0	7086	8.6	1
0	7087	8.6	2
0	7088	8.6	1
0	7089	8.6	1
0	7090	8.6	2
0	7091	8.6	1
0	7104	8.65	1
0	7105	8.65	2
0	7106	8.65	1
0	7113	8.7	1
0	7114	8.7	2
0	7115	8.7	1
0	7116	8.7	1
0	7117	8.7	2
0	7118	8.7	1
0	7147	8.75	1
0	7148	8.75	2
0	7149	8.75	1
0	7156	8.8	1
0	7157	8.8	2
0	7158	8.8	1
0	7159	8.8	1
0	7160	8.8	2
0	7161	8.8	1
0	7174	8.85	1
0	7175	8.85	2
0	7176	8.85	1
0	7183	8.9	1
0	7184	8.9	2
0	7185	8.9	1
0	7186	8.9	1
0	7187	8.9	2
0	7188	8.9	1
0	7214	8.95	1
0	7215	8.95	2
0	7216	8.95	1
0	7223	9	1
0	7224	9	2
0	7225	9	1
0	7226	9	1
0	7227	9	2
0	7228	9	1
0	7241	9.05	1
0	7242	9.05	2
0	7243	9.05	1
0	7250	9.1	1
0	7251	9.1	2
0	7252	9.1	1
0	7253	9.1	1
0	7254	9.1	2
0	7255	9.1	1
0	7268	9.15	1
0	7269	9.15	2
0	7270	9.15	1
0	7277	9.2	1
0	7278	9.2	2
0	7279	9.2	1
0	7280	9.2	1
0	7281	9.2	2
0	7282	9.2	1
0	7295	9.25	1
0	7296	9.25	2
0	7297	9.25	1
0	7317	9.3	1
0	7318	9.3	2
0	7319	9.3	1
0	7320	9.3	1
0	7321	9.3	2
0	7322	9.3	1
0	7335	9.35	1
0	7336	9.35	2
0	7337	9.35	1
0	7344	9.4	1
0	7345	9.4	2
0	7346	9.4	1
0	7347	9.4	1
0	7348	9.4	2
0	7349	9.4	1
0	7362	9.45	1
0	7363	9.45	2
0	7364	9.45	1
0	7384	9.5	1
0	7385	9.5	2
0	7386	9.5	1
0	7387	9.5	1
0	7388	9.5	2
0	7389	9.5	1
0	7402	9.55	1
0	7403	9.55	2
0	7404	9.55	1
0	7411	9.6	1
0	7412	9.6	2
0	7413	9.6	1
0	7414	9.6	1
0	7415	9.6	2
0	7416	9.6	1
0	7429	9.65	1
0	7430	9.65	2
0	7431	9.65	1
0	7438	9.7	1
0	7439	9.7	2
0	7440	9.7	1
0	7441	9.7	1
0	7442	9.7	2
0	7443	9.7	1
0	7456	9.75	1
0	7457	9.75	2
0	7458	9.75	1
0	7465	9.8	1
0	7466	9.8	2
0	7467	9.8	1
0	7468	9.8	1
0	7469	9.8	2
0	7470	9.8	1
0	7486	9.85	1
0	7487	9.85	2
0	7488	9.85	1
0	7495	9.9	1
0	7496	9.9	2
0	7497	9.9	1
0	7498	9.9	1
0	7499	9.9	2
0	7500	9.9	1
0	7513	9.95	1
0	7514	9.95	2
0	7515	9.95	1
0	7535	10	1
0	7536	10	2
0	7537	10	1
0	7538	10	1
0	7539	10	2
0	7540	10	1
0	7553	10.05	1
0	7554	10.05	2
0	7555	10.05	1
0	7562	10.1	1
0	7563	10.1	2
0	7564	10.1	1
0	7565	10.1	1
0	7566	10.1	2
0	7567	10.1	1
0	7593	10.15	1
0	7594	10.15	2
0	7595	10.15	1
0	7602	10.2	1
0	7603	10.2	2
0	7604	10.2	1
0	7605	10.2	1
0	7606	10.2	2
0	7607	10.2	1
0	7620	10.25	1
0	7621	10.25	2
0	7622	10.25	1
0	7629	10.3	1
0	7630	10.3	2
0	7631	10.3	1
0	7632	10.3	1
0	7633	10.3	2
0	7634	10.3	1
0	7647	10.35	1
0	7648	10.35	2
0	7649	10.35	1
0	7656	10.4	1
0	7657	10.4	2
0	7658	10.4	1
0	7659	10.4	1
0	7660	10.4	2
0	7661	10.4	1
0	7674	10.45	1
0	7675	10.45	2
0	7676	10.45	1
0	7683	10.5	1
0	7684	10.5	2
0	7685	10.5	1
0	7686	10.5	1
0	7687	10.5	2
0	7688	10.5	1
0	7714	10.55	1
0	7715	10.55	2
0	7716	10.55	1
0	7723	10.6	1
0	7724	10.6	2
0	7725	10.6	1
0	7726	10.6	1
0	7727	10.6	2
0	7728	10.6	1
0	7741	10.65	1
0	7742	10.65	2
0	7743	10.65	1
0	7763	10.7	1
0	7764	10.7	2
0	7765	10.7	1
0	7766	10.7	1
0	7767	10.7	2
0	7768	10.7	1
0	7781	10.75	1
0	7782	10.75	2
0	7783	10.75	1
0	7790	10.8	1
0	7791	10.8	2
0	7792	10.8	1
0	7793	10.8	1
0	7794	10.8	2
0	7795	10.8	1
0	7808	10.85	1
0	7809	10.85	2
0	7810	10.85	1
0	7817	10.9	1
0	7818	10.9	2
0	7819	10.9	1
0	7820	10.9	1
0	7821	10.9	2
0	7822	10.9	1
0	7835	10.95	1
0	7836	10.95	2
0	7837	10.95	1
0	7844	11	1
0	7845	11	2
0	7846	11	1
0	7847	11	1
0	7848	11	2
0	7849	11	1
0	7862	11.05	1
0	7863	11.05	2
0	7864	11.05	1
0	7887	11.1	1
0	7888	11.1	2
0	7889	11.1	1
0	7890	11.1	1
0	7891	11.1	2
0	7892	11.1	1
0	7905	11.15	1
0	7906	11.15	2
0	7907	11.15	1
0	7914	11.2	1
0	7915	11.2	2
0	7916	11.2	1
0	7917	11.2	1
0	7918	11.2	2
0	7919	11.2	1
0	7945	11.25	1
0	7946	11.25	2
0	7947	11.25	1
0	7954	11.3	1
0	7955	11.3	2
0	7956	11.3	1
0	7957	11.3	1
0	7958	11.3	2
0	7959	11.3	1
0	7972	11.35	1
0	7973	11.35	2
0	7974	11.35	1
0	7981	11.4	1
0	7982	11.4	2
0	7983	11.4	1
0	7984	11.4	1
0	7985	11.4	2
0	7986	11.4	1
0	7999	11.45	1
0	8000	11.45	2
0	8001	11.45	1
0	8008	11.5	1
0	8009	11.5	2
0	8010	11.5	1
0	8011	11.5	1
0	8012	11.5	2
0	8013	11.5	1
0	8026	11.55	1
0	8027	11.55	2
0	8028	11.55	1
0	8035	11.6	1
0	8036	11.6	2
0	8037	11.6	1
0	8038	11.6	1
0	8039	11.6	2
0	8040	11.6	1
0	8066	11.65	1
0	8067	11.65	2
0	8068	11.65	1
0	8075	11.7	1
0	8076	11.7	2
0	8077	11.7	1
0	8078	11.7	1
0	8079	11.7	2
0	8080	11.7	1
0	8093	11.75	1
0	8094	11.75	2
0	8095	11.75	1
0	8115	11.8	1
0	8116	11.8	2
0	8117	11.8	1
0	8118	11.8	1
0	8119	11.8	2
0	8120	11.8	1
0	8133	11.85	1
0	8134	11.85	2
0	8135	11.85	1
0	8142	11.9	1
0	8143	11.9	2
0	8144	11.9	1
0	8145	11.9	1
0	8146	11.9	2
0	8147	11.9	1
0	8160	11.95	1
0	8161	11.95	2
0	8162	11.95	1
0	8169	12	1
0	8170	12	2
0	8171	12	1
0	8172	12	1
0	8173	12	2
0	8174	12	1
0	8187	12.05	1
0	8188	12.05	2
0	8189	12.05	1
0	8196	12.1	1
0	8197	12.1	2
0	8198	12.1	1
0	8199	12.1	1
0	8200	12.1	2
0	8201	12.1	1
0	8214	12.15	1
0	8215	12.15	2
0	8216	12.15	1
0	8236	12.2	1
0	8237	12.2	2
0	8238	12.2	1
0	8239	12.2	1
0	8240	12.2	2
0	8241	12.2	1
0	8254	12.25	1
0	8255	12.25	2
0	8256	12.25	1
0	8276	12.3	1
0	8277	12.3	2
0	8278	12.3	1
0	8279	12.3	1
0	8280	12.3	2
0	8281	12.3	1
0	8297	12.35	1
0	8298	12.35	2
0	8299	12.35	1
0	8306	12.4	1
0	8307	12.4	2
0	8308	12.4	1
0	8309	12.4	1
0	8310	12.4	2
0	8311	12.4	1
0	8337	12.45	1
0	8338	12.45	2
0	8339	12.45	1
0	8346	12.5	1
0	8347	12.5	2
0	8348	12.5	1
0	8349	12.5	1
0	8350	12.5	2
0	8351	12.5	1
0	8364	12.55	1
0	8365	12.55	2
0	8366	12.55	1
0	8373	12.6	1
0	8374	12.6	2
0	8375	12.6	1
0	8376	12.6	1
0	8377	12.6	2
0	8378	12.6	1
0	8391	12.65	1
0	8392	12.65	2
0	8393	12.65	1
0	8400	12.7	1
0	8401	12.7	2
0	8402	12.7	1
0	8403	12.7	1
0	8404	12.7	2
0	8405	12.7	1
0	8418	12.75	1
0	8419	12.75	2
0	8420	12.75	1
0	8427	12.8	1
0	8428	12.8	2
0	8429	12.8	1
0	8430	12.8	1
0	8431	12.8	2
0	8432	12.8	1
0	8458	12.85	1
0	8459	12.85	2
0	8460	12.85	1
0	8467	12.9	1
0	8468	12.9	2
0	8469	12.9	1
0	8470	12.9	1
0	8471	12.9	2
0	8472	12.9	1
0	8485	12.95	1
0	8486	12.95	2
0	8487	12.95	1
0	8507	13	1
0	8508	13	2
0	8509	13	1
0	8510	13	1
0	8511	13	2
0	8512	13	1
0	8525	13.05	1
0	8526	13.05	2
0	8527	13.05	1
0	8534	13.1	1
0	8535	13.1	2
0	8536	13.1	1
0	8537	13.1	1
0	8538	13.1	2
0	8539	13.1	1
0	8552	13.15	1
0	8553	13.15	2
0	8554	13.15	1
0	8561	13.2	1
0	8562	13.2	2
0	8563	13.2	1
0	8564	13.2	1
0	8565	13.2	2
0	8566	13.2	1
0	8579	13.25	1
0	8580	13.25	2
0	8581	13.25	1
0	8588	13.3	1
0	8589	13.3	2
0	8590	13.3	1
0	8591	13.3	1
0	8592	13.3	2
0	8593	13.3	1
0	8606	13.35	1
0	8607	13.35	2
0	8608	13.35	1
0	8628	13.4	1
0	8629	13.4	2
0	8630	13.4	1
0	8631	13.4	1
0	8632	13.4	2
0	8633	13.4	1
0	8646	13.45	1
0	8647	13.45	2
0	8648	13.45	1
0	8655	13.5	1
0	8656	13.5	2
0	8657	13.5	1
0	8658	13.5	1
0	8659	13.5	2
0	8660	13.5	1
0	8686	13.55	1
0	8687	13.55	2
0	8688	13.55	1
0	8695	13.6	1
0	8696	13.6	2
0	8697	13.6	1
0	8698	13.6	1
0	8699	13.6	2
0	8700	13.6	1
0	8713	13.65	1
0	8714	13.65	2
0	8715	13.65	1
0	8722	13.7	1
0	8723	13.7	2
0	8724	13.7	1
0	8725	13.7	1
0	8726	13.7	2
0	8727	13.7	1
0	8740	13.75	1
0	8741	13.75	2
0	8742	13.75	1
0	8762	13.8	1
0	8763	13.8	2
0	8764	13.8	1
0	8765	13.8	1
0	8766	13.8	2
0	8767	13.8	1
0	8780	13.85	1
0	8781	13.85	2
0	8782	13.85	1
0	8789	13.9	1
0	8790	13.9	2
0	8791	13.9	1
0	8792	13.9	1
0	8793	13.9	2
0	8794	13.9	1
0	8833	13.95	1
0	8834	13.95	2
0	8835	13.95	1
0	8842	14	1
0	8843	14	2
0	8844	14	1
0	8845	14	1
0	8846	14	2
0	8847	14	1
0	8860	14.05	1
0	8861	14.05	2
0	8862	14.05	1
0	8879	14.1	1
0	8880	14.1	2
0	8881	14.1	1
0	8882	14.1	1
0	8883	14.1	2
0	8884	14.1	1
0	8897	14.15	1
0	8898	14.15	2
0	8899	14.15	1
0	8906	14.2	1
0	8907	14.2	2
0	8908	14.2	1
0	8909	14.2	1
0	8910	14.2	2
0	8911	14.2	1
0	8924	14.25	1
0	8925	14.25	2
0	8926	14.25	1
0	8933	14.3	1
0	8934	14.3	2
0	8935	14.3	1
0	8936	14.3	1
0	8937	14.3	2
0	8938	14.3	1
0	8964	14.35	1
0	8965	14.35	2
0	8966	14.35	1
0	8973	14.4	1
0	8974	14.4	2
0	8975	14.4	1
0	8976	14.4	1
0	8977	14.4	2
0	8978	14.4	1
0	8991	14.45	1
0	8992	14.45	2
0	8993	14.45	1
0	9026	14.5	1
0	9027	14.5	2
0	9028	14.5	1
0	9029	14.5	1
0	9030	14.5	2
0	9031	14.5	1
0	9044	14.55	1
0	9045	14.55	2
0	9046	14.55	1
0	9053	14.6	1
0	9054	14.6	2
0	9055	14.6	1
0	9056	14.6	1
0	9057	14.6	2
0	9058	14.6	1
0	9084	14.65	1
0	9085	14.65	2
0	9086	14.65	1
0	9093	14.7	1
0	9094	14.7	2
0	9095	14.7	1
0	9096	14.7	1
0	9097	14.7	2
0	9098	14.7	1
0	9111	14.75	1
0	9112	14.75	2
0	9113	14.75	1
0	9120	14.8	1
0	9121	14.8	2
0	9122	14.8	1
0	9123	14.8	1
0	9124	14.8	2
0	9125	14.8	1
0	9138	14.85	1
0	9139	14.85	2
0	9140	14.85	1
0	9160	14.9	1
0	9161	14.9	2
0	9162	14.9	1
0	9163	14.9	1
0	9164	14.9	2
0	9165	14.9	1
0	9178	14.95	1
0	9179	14.95	2
0	9180	14.95	1
0	9187	15	1
0	9188	15	2
0	9189	15	1
0	9190	15	1
0	9191	15	2
0	9192	15	1
0	9231	15.05	1
0	9232	15.05	2
0	9233	15.05	1
0	9240	15.1	1
0	9241	15.1	2
0	9242	15.1	1
0	9243	15.1	1
0	9244	15.1	2
0	9245	15.1	1
0	9258	15.15	1
0	9259	15.15	2
0	9260	15.15	1
0	9280	15.2	1
0	9281	15.2	2
0	9282	15.2	1
0	9283	15.2	1
0	9284	15.2	2
0	9285	15.2	1
0	9298	15.25	1
0	9299	15.25	2
0	9300	15.25	1
0	9307	15.3	1
0	9308	15.3	2
0	9309	15.3	1
0	9310	15.3	1
0	9311	15.3	2
0	9312	15.3	1
0	9325	15.35	1
0	9326	15.35	2
0	9327	15.35	1
0	9334	15.4	1
0	9335	15.4	2
0	9336	15.4	1
0	9337	15.4	1
0	9338	15.4	2
0	9339	15.4	1
0	9365	15.45	1
0	9366	15.45	2
0	9367	15.45	1
0	9374	15.5	1
0	9375	15.5	2
0	9376	15.5	1
0	9377	15.5	1
0	9378	15.5	2
0	9379	15.5	1
0	9392	15.55	1
0	9393	15.55	2
0	9394	15.55	1
0	9427	15.6	1
0	9428	15.6	2
0	9429	15.6	1
0	9430	15.6	1
0	9431	15.6	2
0	9432	15.6	1
0	9445	15.65	1
0	9446	15.65	2
0	9447	15.65	1
0	9454	15.7	1
0	9455	15.7	2
0	9456	15.7	1
0	9457	15.7	1
0	9458	15.7	2
0	9459	15.7	1
0	9485	15.75	1
0	9486	15.75	2
0	9487	15.75	1
0	9494	15.8	1
0	9495	15.8	2
0	9496	15.8	1
0	9497	15.8	1
0	9498	15.8	2
0	9499	15.8	1
0	9512	15.85	1
0	9513	15.85	2
0	9514	15.85	1
0	9521	15.9	1
0	9522	15.9	2
0	9523	15.9	1
0	9524	15.9	1
0	9525	15.9	2
0	9526	15.9	1
0	9539	15.95	1
0	9540	15.95	2
0	9541	15.95	1
0	9561	16	1
0	9562	16	2
0	9563	16	1
0	9564	16	1
0	9565	16	2
0	9566	16	1
0	9579	16.05	1
0	9580	16.05	2
0	9581	16.05	1
0	9601	16.1	1
0	9602	16.1	2
0	9603	16.1	1
0	9604	16.1	1
0	9605	16.1	2
0	9606	16.1	1
0	9632	16.15	1
0	9633	16.15	2
0	9634	16.15	1
0	9641	16.2	1
0	9642	16.2	2
0	9643	16.2	1
0	9644	16.2	1
0	9645	16.2	2
0	9646	16.2	1
0	9659	16.25	1
0	9660	16.25	2
0	9661	16.25	1
0	9678	16.3	1
0	9679	16.3	2
0	9680	16.3	1
0	9681	16.3	1
0	9682	16.3	2
0	9683	16.3	1
0	9696	16.35	1
0	9697	16.35	2
0	9698	16.35	1
0	9705	16.4	1
0	9706	16.4	2
0	9707	16.4	1
0	9708	16.4	1
0	9709	16.4	2
0	9710	16.4	1
0	9723	16.45	1
0	9724	16.45	2
0	9725	16.45	1
0	9732	16.5	1
0	9733	16.5	2
0	9734	16.5	1
0	9735	16.5	1
0	9736	16.5	2
0	9737	16.5	1
0	9763	16.55	1
0	9764	16.55	2
0	9765	16.55	1
0	9772	16.6	1
0	9773	16.6	2
0	9774	16.6	1
0	9775	16.6	1
0	9776	16.6	2
0	9777	16.6	1
0	9803	16.65	1
0	9804	16.65	2
0	9805	16.65	1
0	9815	16.7	1
0	9816	16.7	2
0	9817	16.7	1
0	9818	16.7	1
0	9819	16.7	2
0	9820	16.7	1
0	9833	16.75	1
0	9834	16.75	2
0	9835	16.75	1
0	9842	16.8	1
0	9843	16.8	2
0	9844	16.8	1
0	9845	16.8	1
0	9846	16.8	2
0	9847	16.8	1
0	9873	16.85	1
0	9874	16.85	2
0	9875	16.85	1
0	9882	16.9	1
0	9883	16.9	2
0	9884	16.9	1
0	9885	16.9	1
0	9886	16.9	2
0	9887	16.9	1
0	9900	16.95	1
0	9901	16.95	2
0	9902	16.95	1
0	9909	17	1
0	9910	17	2
0	9911	17	1
0	9912	17	1
0	9913	17	2
0	9914	17	1
0	9927	17.05	1
0	9928	17.05	2
0	9929	17.05	1
0	9936	17.1	1
0	9937	17.1	2
0	9938	17.1	1
0	9939	17.1	1
0	9940	17.1	2
0	9941	17.1	1
0	9954	17.15	1
0	9955	17.15	2
0	9956	17.15	1
0	9966	17.2	1
0	9967	17.2	2
0	9968	17.2	1
0	9969	17.2	1
0	9970	17.2	2
0	9971	17.2	1
0	9984	17.25	1
0	9985	17.25	2
0	9986	17.25	1
0	9993	17.3	1
0	9994	17.3	2
0	9995	17.3	1
0	9996	17.3	1
0	9997	17.3	2
0	9998	17.3	1
0	10011	17.35	1
0	10012	17.35	2
0	10013	17.35	1
0	10020	17.4	1
0	10021	17.4	2
0	10022	17.4	1
0	10023	17.4	1
0	10024	17.4	2
0	10025	17.4	1
0	10038	17.45	1
0	10039	17.45	2
0	10040	17.45	1
0	10047	17.5	1
0	10048	17.5	2
0	10049	17.5	1
0	10050	17.5	1
0	10051	17.5	2
0	10052	17.5	1
0	10065	17.55	1
0	10066	17.55	2
0	10067	17.55	1
0	10074	17.6	1
0	10075	17.6	2
0	10076	17.6	1
0	10077	17.6	1
0	10078	17.6	2
0	10079	17.6	1
0	10092	17.65	1
0	10093	17.65	2
0	10094	17.65	1
0	10101	17.7	1
0	10102	17.7	2
0	10103	17.7	1
0	10104	17.7	1
0	10105	17.7	2
0	10106	17.7	1
0	10119	17.75	1
0	10120	17.75	2
0	10121	17.75	1
0	10128	17.8	1
0	10129	17.8	2
0	10130	17.8	1
0	10131	17.8	1
0	10132	17.8	2
0	10133	17.8	1
0	10146	17.85	1
0	10147	17.85	2
0	10148	17.85	1
0	10155	17.9	1
0	10156	17.9	2
0	10157	17.9	1
0	10158	17.9	1
0	10159	17.9	2
0	10160	17.9	1
0	10173	17.95	1
0	10174	17.95	2
0	10175	17.95	1
0	10182	18	1
0	10183	18	2
0	10184	18	1
0	10185	18	1
0	10186	18	2
0	10187	18	1
0	10200	18.05	1
0	10201	18.05	2
0	10202	18.05	1
0	10209	18.1	1
0	10210	18.1	2
0	10211	18.1	1
0	10212	18.1	1
0	10213	18.1	2
0	10214	18.1	1
0	10240	18.15	1
0	10241	18.15	2
0	10242	18.15	1
0	10249	18.2	1
0	10250	18.2	2
0	10251	18.2	1
0	10252	18.2	1
0	10253	18.2	2
0	10254	18.2	1
0	10267	18.25	1
0	10268	18.25	2
0	10269	18.25	1
0	10289	18.3	1
0	10290	18.3	2
0	10291	18.3	1
0	10292	18.3	1
0	10293	18.3	2
0	10294	18.3	1
0	10307	18.35	1
0	10308	18.35	2
0	10309	18.35	1
0	10316	18.4	1
0	10317	18.4	2
0	10318	18.4	1
0	10319	18.4	1
0	10320	18.4	2
0	10321	18.4	1
0	10347	18.45	1
0	10348	18.45	2
0	10349	18.45	1
0	10356	18.5	1
0	10357	18.5	2
0	10358	18.5	1
0	10359	18.5	1
0	10360	18.5	2
0	10361	18.5	1
0	10374	18.55	1
0	10375	18.55	2
0	10376	18.55	1
0	10396	18.6	1
0	10397	18.6	2
0	10398	18.6	1
0	10399	18.6	1
0	10400	18.6	2
0	10401	18.6	1
0	10414	18.65	1
0	10415	18.65	2
0	10416	18.65	1
0	10436	18.7	1
0	10437	18.7	2
0	10438	18.7	1
0	10439	18.7	1
0	10440	18.7	2
0	10441	18.7	1
0	10454	18.75	1
0	10455	18.75	2
0	10456	18.75	1
0	10463	18.8	1
0	10464	18.8	2
0	10465	18.8	1
0	10466	18.8	1
0	10467	18.8	2
0	10468	18.8	1
0	10494	18.85	1
0	10495	18.85	2
0	10496	18.85	1
0	10503	18.9	1
0	10504	18.9	2
0	10505	18.9	1
0	10506	18.9	1
0	10507	18.9	2
0	10508	18.9	1
0	10521	18.95	1
0	10522	18.95	2
0	10523	18.95	1
0	10543	19	1
0	10544	19	2
0	10545	19	1
0	10546	19	1
0	10547	19	2
0	10548	19	1
0	10561	19.05	1
0	10562	19.05	2
0	10563	19.05	1
0	10570	19.1	1
0	10571	19.1	2
0	10572	19.1	1
0	10573	19.1	1
0	10574	19.1	2
0	10575	19.1	1
0	10601	19.15	1
0	10602	19.15	2
0	10603	19.15	1
0	10610	19.2	1
0	10611	19.2	2
0	10612	19.2	1
0	10613	19.2	1
0	10614	19.2	2
0	10615	19.2	1
0	10641	19.25	1
0	10642	19.25	2
0	10643	19.25	1
0	10650	19.3	1
0	10651	19.3	2
0	10652	19.3	1
0	10653	19.3	1
0	10654	19.3	2
0	10655	19.3	1
0	10668	19.35	1
0	10669	19.35	2
0	10670	19.35	1
0	10690	19.4	1
0	10691	19.4	2
0	10692	19.4	1
0	10693	19.4	1
0	10694	19.4	2
0	10695	19.4	1
0	10708	19.45	1
0	10709	19.45	2
0	10710	19.45	1
0	10717	19.5	1
0	10718	19.5	2
0	10719	19.5	1
0	10720	19.5	1
0	10721	19.5	2
0	10722	19.5	1
0	10748	19.55	1
0	10749	19.55	2
0	10750	19.55	1
0	10757	19.6	1
0	10758	19.6	2
0	10759	19.6	1
0	10760	19.6	1
0	10761	19.6	2
0	10762	19.6	1
0	10775	19.65	1
0	10776	19.65	2
0	10777	19.65	1
0	10797	19.7	1
0	10798	19.7	2
0	10799	19.7	1
0	10800	19.7	1
0	10801	19.7	2
0	10802	19.7	1
0	10815	19.75	1
0	10816	19.75	2
0	10817	19.75	1
0	10837	19.8	1
0	10838	19.8	2
0	10839	19.8	1
0	10840	19.8	1
0	10841	19.8	2
0	10842	19.8	1
0	10855	19.85	1
0	10856	19.85	2
0	10857	19.85	1
0	10864	19.9	1
0	10865	19.9	2
0	10866	19.9	1
0	10867	19.9	1
0	10868	19.9	2
0	10869	19.9	1
0	10895	19.95	1
0	10896	19.95	2
0	10897	19.95	1
0	10904	20	1
0	10905	20	2
0	10906	20	1
0	10907	20	1
0	10908	20	2
0	10909	20	1
1	19	0.1	-nan
1	21	0.1	-nan
1	41	0.101	-nan
1	42	0.101	-nan
1	45	0.102	-nan
1	46	0.102	-nan
1	49	0.103	-nan
1	50	0.103	-nan
1	53	0.104	-nan
1	54	0.104	-nan
1	57	0.105	-nan
1	58	0.105	-nan
1	61	0.106	-nan
1	62	0.106	-nan
1	65	0.107	-nan
1	66	0.107	-nan
1	69	0.108	-nan
1	70	0.108	-nan
1	73	0.109	-nan
1	74	0.109	-nan
1	77	0.11	-nan
1	78	0.11	-nan
1	81	0.111	-nan
1	82	0.111	-nan
1	85	0.112	-nan
1	86	0.112	-nan
1	89	0.113	-nan
1	90	0.113	-nan
1	93	0.114	-nan
1	94	0.114	-nan
1	97	0.115	-nan
1	98	0.115	-nan
1	101	0.116	-nan
1	102	0.116	-nan
1	105	0.117	-nan
1	106	0.117	-nan
1	109	0.118	-nan
1	110	0.118	-nan
1	113	0.119	-nan
1	114	0.119	-nan
1	117	0.12	-nan
1	118	0.12	-nan
1	121	0.121	-nan
1	122	0.121	-nan
1	125	0.122	-nan
1	126	0.122	-nan
1	129	0.123	-nan
1	130	0.123	-nan
1	133	0.124	-nan
1	134	0.124	-nan
1	137	0.125	-nan
1	138	0.125	-nan
1	141	0.126	-nan
1	142	0.126	-nan
1	145	0.127	-nan
1	146	0.127	-nan
1	149	0.128	-nan
1	150	0.128	-nan
1	153	0.129	-nan
1	154	0.129	-nan
1	157	0.13	-nan
1	158	0.13	-nan
1	161	0.131	-nan
1	162	0.131	-nan
1	165	0.132	-nan
1	166	0.132	-nan
1	169	0.133	-nan
1	170	0.133	-nan
1	173	0.134	-nan
1	174	0.134	-nan
1	177	0.135	-nan
1	178	0.135	-nan
1	181	0.136	-nan
1	182	0.136	-nan
1	185	0.137	-nan
1	186	0.137	-nan
1	189	0.138	-nan
1	190	0.138	-nan
1	193	0.139	-nan
1	194	0.139	-nan
1	197	0.14	-nan
1	198	0.14	-nan
1	201	0.141	-nan
1	202	0.141	-nan
1	205	0.142	-nan
1	206	0.142	-nan
1	209	0.143	-nan
1	210	0.143	-nan
1	213	0.144	-nan
1	214	0.144	-nan
1	217	0.145	-nan
1	218	0.145	-nan
1	221	0.146	-nan
1	222	0.146	-nan
1	225	0.147	-nan
1	226	0.147	-nan
1	229	0.148	-nan
1	230	0.148	-nan
1	233	0.149	-nan
1	234	0.149	-nan
1	240	0.15	-nan
1	241	0.15	-nan
1	250	0.151	-nan
1	251	0.151	-nan
1	254	0.152	-nan
1	255	0.152	-nan
1	258	0.153	-nan
1	259	0.153	-nan
1	262	0.154	-nan
1	263	0.154	-nan
1	266	0.155	-nan
1	267	0.155	-nan
1	270	0.156	-nan
1	271	0.156	-nan
1	274	0.157	-nan
1	275	0.157	-nan
1	278	0.158	-nan
1	279	0.158	-nan
1	282	0.159	-nan
1	283	0.159	-nan
1	286	0.16	-nan
1	287	0.16	-nan
1	290	0.161	-nan
1	291	0.161	-nan
1	294	0.162	-nan
1	295	0.162	-nan
1	298	0.163	-nan
1	299	0.163	-nan
1	302	0.164	-nan
1	303	0.164	-nan
1	306	0.165	-nan
1	307	0.165	-nan
1	310	0.166	-nan
1	311	0.166	-nan
1	314	0.167	-nan
1	315	0.167	-nan
1	318	0.168	-nan
1	319	0.168	-nan
1	322	0.169	-nan
1	323	0.169	-nan
1	326	0.17	-nan
1	327	0.17	-nan
1	330	0.171	-nan
1	331	0.171	-nan
1	334	0.172	-nan
1	335	0.172	-nan
1	338	0.173	-nan
1	339	0.173	-nan
1	342	0.174	-nan
1	343	0.174	-nan
1	346	0.175	-nan
1	347	0.175	-nan
1	350	0.176	-nan
1	351	0.176	-nan
1	354	0.177	-nan
1	355	0.177	-nan
1	358	0.178	-nan
1	359	0.178	-nan
1	362	0.179	-nan
1	363	0.179	-nan
1	366	0.18	-nan
1	367	0.18	-nan
1	370	0.181	-nan
1	371	0.181	-nan
1	374	0.182	-nan
1	375	0.182	-nan
1	378	0.183	-nan
1	379	0.183	-nan
1	382	0.184	-nan
1	383	0.184	-nan
1	386	0.185	-nan
1	387	0.185	-nan
1	390	0.186	-nan
1	391	0.186	-nan
1	394	0.187	-nan
1	395	0.187	-nan
1	398	0.188	-nan
1	399	0.188	-nan
1	402	0.189	-nan
1	403	0.189	-nan
1	406	0.19	-nan
1	407	0.19	-nan
1	410	0.191	-nan
1	411	0.191	-nan
1	414	0.192	-nan
1	415	0.192	-nan
1	418	0.193	-nan
1	419	0.193	-nan
1	422	0.194	-nan
1	423	0.194	-nan
1	426	0.195	-nan
1	427	0.195	-nan
1	430	0.196	-nan
1	431	0.196	-nan
1	434	0.197	-nan
1	435	0.197	-nan
1	438	0.198	-nan
1	439	0.198	-nan
1	442	0.199	-nan
1	443	0.199	-nan
2	960	1.142624192201	141
2	979	1.156464192201	282
2	989	1.170304192201	423
2	999	1.184144192201	564
2	1009	1.197984192201	705
2	1037	1.211824192201	846
2	1047	1.225664192201	987
2	1057	1.239504192201	1128
2	1076	1.253344192201	1269
2	1086	1.267184192201	1410
2	1096	1.281024192201	1551
2	1106	1.294864192201	1692
2	1134	1.308704192201	1833
2	1144	1.322544192201	1974
2	1154	1.336384192201	2115
2	1173	1.350224192201	2256
2	1183	1.364064192201	2397
2	1193	1.377904192201	2538
2	1203	1.391744192201	2679
2	1232	1.419424192201	2820
2	1242	1.433264192201	2961
2	1252	1.447104192201	3102
2	1271	1.460944192201	3243
2	1281	1.474784192201	3384
2	1291	1.488624192201	3525
2	1316	1.502464192201	3666
2	1326	1.516304192201	3807
2	1336	1.530144192201	3948
2	1346	1.543984192201	4089
2	1365	1.557824192201	4230
2	1375	1.571664192201	4371
2	1386	1.599344192201	4512
2	1414	1.613184192201	4653
2	1424	1.627024192201	4794
2	1434	1.640864192201	4935
2	1461	1.654704192201	5076
2	1485	1.668544192201	5217
2	1495	1.682384192201	5358
2	1505	1.696224192201	5499
2	1530	1.710064192201	5640
2	1540	1.723904192201	5781
2	1550	1.737744192201	5922
2	1569	1.751584192201	6063
2	1579	1.765424192201	6204
2	1590	1.793104192201	6345
2	1618	1.806944192201	6486
2	1628	1.820784192201	6627
2	1635	1.834624192201	6768
2	1645	1.848464192201	6909
2	1664	1.862304192201	7050
2	1674	1.876144192201	7191
2	1684	1.889984192201	7332
2	1712	1.903824192201	7473
2	1722	1.917664192201	7614
2	1732	1.931504192201	7755
2	1742	1.945344192201	7896
2	1758	1.959184192201	8037
2	1768	1.973024192201	8178
2	1778	1.986864192201	8319
2	1806	2.000704192201	8460
2	1813	2.014544192201	8601
2	1823	2.028384192201	8742
2	1833	2.042224192201	8883
2	1852	2.056064192201	9024
2	1862	2.069904192201	9165
2	1872	2.083744192201	9306
2	1882	2.097584192201	9447
2	1910	2.111424192201	9588
2	1920	2.125264192201	9729
2	1930	2.139104192201	9870
2	1946	2.152944192201	10011
2	1956	2.166784192201	10152
2	1966	2.180624192201	10293
2	1976	2.194464192201	10434
2	2008	2.208304192201	10575
2	2018	2.222144192201	10716
2	2028	2.235984192201	10857
2	2038	2.249824192201	10998
2	2057	2.263664192201	11139
2	2067	2.277504192201	11280
2	2077	2.291344192201	11421
2	2105	2.305184192201	11562
2	2115	2.319024192201	11703
2	2125	2.332864192201	11844
2	2135	2.346704192201	11985
2	2154	2.360544192201	12126
2	2164	2.374384192201	12267
2	2174	2.388224192201	12408
2	2203	2.415904192201	12549
2	2213	2.429744192201	12690
2	2223	2.443584192201	12831
2	2242	2.457424192201	12972
2	2252	2.471264192201	13113
2	2262	2.485104192201	13254
2	2272	2.498944192201	13395
2	2550	2.536832534095	13536
2	2579	2.550672534095	13677
2	2590	2.564512534095	13818
2	2596	2.574624192201	13959
2	2606	2.578352534095	14100
2	2612	2.588464192201	14241
2	2619	2.592192534095	14382
2	2643	2.602304192201	14523
2	2653	2.606032534095	14664
2	2659	2.616144192201	14805
2	2669	2.619872534095	14946
2	2675	2.629984192201	15087
2	2685	2.633712534095	15228
2	2691	2.643824192201	15369
2	2715	2.657664192201	15510
2	2728	2.661392534095	15651
2	2738	2.671504192201	15792
2	2748	2.675232534095	15933
2	2759	2.689072534095	16074
2	2803	2.702912534095	16215
2	2829	2.716752534095	16356
2	2847	2.730592534095	16497
2	2857	2.744432534095	16638
2	2876	2.758272534095	16779
2	2886	2.772112534095	16920
2	2896	2.785952534095	17061
2	2906	2.799792534095	17202
2	2948	2.827472534095	17343
2	2958	2.841312534095	17484
2	2977	2.855152534095	17625
2	2987	2.868992534095	17766
2	2997	2.882832534095	17907
2	3007	2.896672534095	18048
2	3032	2.910512534095	18189
2	3040	2.938192534095	18330
2	3059	2.952032534095	18471
2	3069	2.965872534095	18612
2	3076	2.979712534095	18753
2	3086	2.993552534095	18894
2	3114	3.007392534095	19035
2	3124	3.021232534095	19176
2	3134	3.035072534095	19317
2	3144	3.048912534095	19458
2	3163	3.062752534095	19599
2	3173	3.076592534095	19740
2	3183	3.090432534095	19881
2	3211	3.104272534095	20022
2	3221	3.118112534095	20163
2	3231	3.131952534095	20304
2	3241	3.145792534095	20445
2	3260	3.159632534095	20586
2	3270	3.173472534095	20727
2	3280	3.187312534095	20868
2	3307	3.201152534095	21009
2	3328	3.214992534095	21150
2	3338	3.228832534095	21291
2	3348	3.242672534095	21432
2	3367	3.256512534095	21573
2	3377	3.270352534095	21714
2	3387	3.284192534095	21855
2	3416	3.311872534095	21996
2	3426	3.325712534095	22137
2	3436	3.339552534095	22278
2	3457	3.353392534095	22419
2	3479	3.381072534095	22560
2	3508	3.408752534095	22701
2	3515	3.422592534095	22842
2	3525	3.436432534095	22983
2	3544	3.450272534095	23124
2	3554	3.464112534095	23265
2	3564	3.477952534095	23406
2	3574	3.491792534095	23547
2	3602	3.505632534095	23688
2	3612	3.519472534095	23829
2	3622	3.533312534095	23970
2	3632	3.547152534095	24111
2	3651	3.560992534095	24252
2	3661	3.574832534095	24393
2	3671	3.588672534095	24534
2	3699	3.602512534095	24675
2	3709	3.616352534095	24816
2	3719	3.630192534095	24957
2	3729	3.644032534095	25098
2	3748	3.657872534095	25239
2	3758	3.671712534095	25380
2	3768	3.685552534095	25521
2	3778	3.699392534095	25662
2	3806	3.713232534095	25803
2	3817	3.740912534095	25944
2	3838	3.754752534095	26085
2	3859	3.768592534095	26226
2	3869	3.782432534095	26367
2	3879	3.796272534095	26508
2	3916	3.810112534095	26649
2	3926	3.823952534095	26790
2	3946	3.851632534095	26931
2	3956	3.865472534095	27072
2	3966	3.879312534095	27213
2	3973	3.893152534095	27354
2	4003	3.906992534095	27495
2	4070	3.939941727181	27636
2	4091	3.953781727181	27777
2	4101	3.967621727181	27918
2	4111	3.981461727181	28059
2	4121	3.995301727181	28200
2	4149	4.009141727181	28341
2	4159	4.022981727181	28482
2	4176	4.050661727181	28623
2	4186	4.064501727181	28764
2	4196	4.078341727181	28905
2	4206	4.092181727181	29046
2	4234	4.106021727181	29187
2	4244	4.119861727181	29328
2	4254	4.133701727181	29469
2	4288	4.162010920267	29610
2	4298	4.175850920267	29751
2	4834	5.042293385287	29892
2	4855	5.056133385287	30033
2	4872	5.069973385287	30174
2	4882	5.083813385287	30315
2	4892	5.097653385287	30456
2	4920	5.111493385287	30597
2	4930	5.125333385287	30738
2	4940	5.139173385287	30879
2	4959	5.153013385287	31020
2	4969	5.166853385287	31161
2	4976	5.180693385287	31302
2	4986	5.194533385287	31443
2	5014	5.208373385287	31584
2	5024	5.222213385287	31725
2	5034	5.236053385287	31866
2	5044	5.249893385287	32007
2	5063	5.263733385287	32148
2	5073	5.277573385287	32289
2	5083	5.291413385287	32430
2	5111	5.305253385287	32571
2	5121	5.319093385287	32712
2	5131	5.332933385287	32853
2	5141	5.346773385287	32994
2	5160	5.360613385287	33135
2	5170	5.374453385287	33276
2	5180	5.388293385287	33417
2	5210	5.402133385287	33558
2	5227	5.415973385287	33699
2	5237	5.429813385287	33840
2	5247	5.443653385287	33981
2	5268	5.457493385287	34122
2	5278	5.471333385287	34263
2	5288	5.485173385287	34404
2	5298	5.499013385287	34545
2	5326	5.512853385287	34686
2	5336	5.526693385287	34827
2	5346	5.540533385287	34968
2	5367	5.554373385287	35109
2	5377	5.568213385287	35250
2	5387	5.582053385287	35391
2	5397	5.595893385287	35532
2	5425	5.609733385287	35673
2	5435	5.623573385287	35814
2	5445	5.637413385287	35955
2	5464	5.651253385287	36096
2	5474	5.665093385287	36237
2	5484	5.678933385287	36378
2	5494	5.692773385287	36519
2	5522	5.706613385287	36660
2	5532	5.720453385287	36801
2	5542	5.734293385287	36942
2	5552	5.748133385287	37083
2	5571	5.761973385287	37224
2	5581	5.775813385287	37365
2	5591	5.789653385287	37506
2	5616	5.803493385287	37647
2	5626	5.817333385287	37788
2	5636	5.831173385287	37929
2	5646	5.845013385287	38070
2	5665	5.858853385287	38211
2	5675	5.872693385287	38352
2	5685	5.886533385287	38493
2	5713	5.900373385287	38634
2	5723	5.914213385287	38775
2	5733	5.928053385287	38916
2	5743	5.941893385287	39057
2	5762	5.955733385287	39198
2	5772	5.969573385287	39339
2	5782	5.983413385287	39480
2	5811	6.011093385287	39621
2	5821	6.024933385287	39762
2	5831	6.038773385287	39903
2	5850	6.052613385287	40044
2	5857	6.066453385287	40185
2	5867	6.080293385287	40326
2	5877	6.094133385287	40467
2	5905	6.107973385287	40608
2	5915	6.121813385287	40749
2	5925	6.135653385287	40890
2	5935	6.149493385287	41031
2	5954	6.163333385287	41172
2	5964	6.177173385287	41313
2	5974	6.191013385287	41454
2	5999	6.204853385287	41595
2	6009	6.218693385287	41736
2	6019	6.232533385287	41877
2	6029	6.246373385287	42018
2	6048	6.260213385287	42159
2	6058	6.274053385287	42300
2	6068	6.287893385287	42441
2	6096	6.301733385287	42582
2	6106	6.315573385287	42723
2	6116	6.329413385287	42864
2	6126	6.343253385287	43005
2	6145	6.357093385287	43146
2	6155	6.370933385287	43287
2	6165	6.384773385287	43428
2	6175	6.398613385287	43569
2	6245	6.445882578373	43710
2	6264	6.459722578373	43851
2	6274	6.473562578373	43992
2	6284	6.487402578373	44133
2	6312	6.501242578373	44274
2	6322	6.515082578373	44415
3	960	1.142624192201	141
3	979	1.156464192201	282
3	989	1.170304192201	423
3	999	1.184144192201	564
3	1009	1.197984192201	705
3	1037	1.211824192201	846
3	1047	1.225664192201	987
3	1057	1.239504192201	1128
3	1076	1.253344192201	1269
3	1086	1.267184192201	1410
3	1096	1.281024192201	1551
3	1106	1.294864192201	1692
3	1134	1.308704192201	1833
3	1144	1.322544192201	1974
3	1154	1.336384192201	2115
3	1173	1.350224192201	2256
3	1183	1.364064192201	2397
3	1193	1.377904192201	2538
3	1203	1.391744192201	2679
3	1232	1.419424192201	2820
3	1242	1.433264192201	2961
3	1252	1.447104192201	3102
3	1271	1.460944192201	3243
3	1281	1.474784192201	3384
3	1291	1.488624192201	3525
3	1316	1.502464192201	3666
3	1326	1.516304192201	3807
3	1336	1.530144192201	3948
3	1346	1.543984192201	4089
3	1365	1.557824192201	4230
3	1375	1.571664192201	4371
3	1386	1.599344192201	4512
3	1414	1.613184192201	4653
3	1424	1.627024192201	4794
3	1434	1.640864192201	4935
3	1461	1.654704192201	5076
3	1485	1.668544192201	5217
3	1495	1.682384192201	5358
3	1505	1.696224192201	5499
3	1530	1.710064192201	5640
3	1540	1.723904192201	5781
3	1550	1.737744192201	5922
3	1569	1.751584192201	6063
3	1579	1.765424192201	6204
3	1590	1.793104192201	6345
3	1618	1.806944192201	6486
3	1628	1.820784192201	6627
3	1635	1.834624192201	6768
3	1645	1.848464192201	6909
3	1664	1.862304192201	7050
3	1674	1.876144192201	7191
3	1684	1.889984192201	7332
3	1712	1.903824192201	7473
3	1722	1.917664192201	7614
3	1732	1.931504192201	7755
3	1742	1.945344192201	7896
3	1758	1.959184192201	8037
3	1768	1.973024192201	8178
3	1778	1.986864192201	8319
3	1806	2.000704192201	8460
3	1813	2.014544192201	8601
3	1823	2.028384192201	8742
3	1833	2.042224192201	8883
3	1852	2.056064192201	9024
3	1862	2.069904192201	9165
3	1872	2.083744192201	9306
3	1882	2.097584192201	9447
3	1910	2.111424192201	9588
3	1920	2.125264192201	9729
3	1930	2.139104192201	9870
3	1946	2.152944192201	10011
3	1956	2.166784192201	10152
3	1966	2.180624192201	10293
3	1976	2.194464192201	10434
3	2008	2.208304192201	10575
3	2018	2.222144192201	10716
3	2028	2.235984192201	10857
3	2038	2.249824192201	10998
3	2057	2.263664192201	11139
3	2067	2.277504192201	11280
3	2077	2.291344192201	11421
3	2105	2.305184192201	11562
3	2115	2.319024192201	11703
3	2125	2.332864192201	11844
3	2135	2.346704192201	11985
3	2154	2.360544192201	12126
3	2164	2.374384192201	12267
3	2174	2.388224192201	12408
3	2203	2.415904192201	12549
3	2213	2.429744192201	12690
3	2223	2.443584192201	12831
3	2242	2.457424192201	12972
3	2252	2.471264192201	13113
3	2262	2.485104192201	13254
3	2272	2.498944192201	13395
3	2550	2.536832534095	13536
3	2579	2.550672534095	13677
3	2590	2.564512534095	13818
3	2596	2.574624192201	13959
3	2606	2.578352534095	14100
3	2612	2.588464192201	14241
3	2619	2.592192534095	14382
3	2643	2.602304192201	14523
3	2653	2.606032534095	14664
3	2659	2.616144192201	14805
3	2669	2.619872534095	14946
3	2675	2.629984192201	15087
3	2685	2.633712534095	15228
3	2691	2.643824192201	15369
3	2715	2.657664192201	15510
3	2728	2.661392534095	15651
3	2738	2.671504192201	15792
3	2748	2.675232534095	15933
3	2759	2.689072534095	16074
3	2803	2.702912534095	16215
3	2829	2.716752534095	16356
3	2847	2.730592534095	16497
3	2857	2.744432534095	16638
3	2876	2.758272534095	16779
3	2886	2.772112534095	16920
3	2896	2.785952534095	17061
3	2906	2.799792534095	17202
3	2948	2.827472534095	17343
3	2958	2.841312534095	17484
3	2977	2.855152534095	17625
3	2987	2.868992534095	17766
3	2997	2.882832534095	17907
3	3007	2.896672534095	18048
3	3032	2.910512534095	18189
3	3040	2.938192534095	18330
3	3059	2.952032534095	18471
3	3069	2.965872534095	18612
3	3076	2.979712534095	18753
3	3086	2.993552534095	18894
3	3114	3.007392534095	19035
3	3124	3.021232534095	19176
3	3134	3.035072534095	19317
3	3144	3.048912534095	19458
3	3163	3.062752534095	19599
3	3173	3.076592534095	19740
3	3183	3.090432534095	19881
3	3211	3.104272534095	20022
3	3221	3.118112534095	20163
3	3231	3.131952534095	20304
3	3241	3.145792534095	20445
3	3260	3.159632534095	20586
3	3270	3.173472534095	20727
3	3280	3.187312534095	20868
3	3307	3.201152534095	21009
3	3328	3.214992534095	21150
3	3338	3.228832534095	21291
3	3348	3.242672534095	21432
3	3367	3.256512534095	21573
3	3377	3.270352534095	21714
3	3387	3.284192534095	21855
3	3416	3.311872534095	21996
3	3426	3.325712534095	22137
3	3436	3.339552534095	22278
3	3457	3.353392534095	22419
3	3479	3.381072534095	22560
3	3508	3.408752534095	22701
3	3515	3.422592534095	22842
3	3525	3.436432534095	22983
3	3544	3.450272534095	23124
3	3554	3.464112534095	23265
3	3564	3.477952534095	23406
3	3574	3.491792534095	23547
3	3602	3.505632534095	23688
3	3612	3.519472534095	23829
3	3622	3.533312534095	23970
3	3632	3.547152534095	24111
3	3651	3.560992534095	24252
3	3661	3.574832534095	24393
3	3671	3.588672534095	24534
3	3699	3.602512534095	24675
3	3709	3.616352534095	24816
3	3719	3.630192534095	24957
3	3729	3.644032534095	25098
3	3748	3.657872534095	25239
3	3758	3.671712534095	25380
3	3768	3.685552534095	25521
3	3778	3.699392534095	25662
3	3806	3.713232534095	25803
3	3817	3.740912534095	25944
3	3838	3.754752534095	26085
3	3859	3.768592534095	26226
3	3869	3.782432534095	26367
3	3879	3.796272534095	26508
3	3916	3.810112534095	26649
3	3926	3.823952534095	26790
3	3946	3.851632534095	26931
3	3956	3.865472534095	27072
3	3966	3.879312534095	27213
3	3973	3.893152534095	27354
3	4003	3.906992534095	27495
3	4070	3.939941727181	27636
3	4091	3.953781727181	27777
3	4101	3.967621727181	27918
3	4111	3.981461727181	28059
3	4121	3.995301727181	28200
3	4149	4.009141727181	28341
3	4159	4.022981727181	28482
3	4176	4.050661727181	28623
3	4186	4.064501727181	28764
3	4196	4.078341727181	28905
3	4206	4.092181727181	29046
3	4234	4.106021727181	29187
3	4244	4.119861727181	29328
3	4254	4.133701727181	29469
3	4288	4.162010920267	29610
3	4298	4.175850920267	29751
3	4834	5.042293385287	29892
3	4855	5.056133385287	30033
3	4872	5.069973385287	30174
3	4882	5.083813385287	30315
3	4892	5.097653385287	30456
3	4920	5.111493385287	30597
3	4930	5.125333385287	30738
3	4940	5.139173385287	30879
3	4959	5.153013385287	31020
3	4969	5.166853385287	31161
3	4976	5.180693385287	31302
3	4986	5.194533385287	31443
3	5014	5.208373385287	31584
3	5024	5.222213385287	31725
3	5034	5.236053385287	31866
3	5044	5.249893385287	32007
3	5063	5.263733385287	32148
3	5073	5.277573385287	32289
3	5083	5.291413385287	32430
3	5111	5.305253385287	32571
3	5121	5.319093385287	32712
3	5131	5.332933385287	32853
3	5141	5.346773385287	32994
3	5160	5.360613385287	33135
3	5170	5.374453385287	33276
3	5180	5.388293385287	33417
3	5210	5.402133385287	33558
3	5227	5.415973385287	33699
3	5237	5.429813385287	33840
3	5247	5.443653385287	33981
3	5268	5.457493385287	34122
3	5278	5.471333385287	34263
3	5288	5.485173385287	34404
3	5298	5.499013385287	34545
3	5326	5.512853385287	34686
3	5336	5.526693385287	34827
3	5346	5.540533385287	34968
3	5367	5.554373385287	35109
3	5377	5.568213385287	35250
3	5387	5.582053385287	35391
3	5397	5.595893385287	35532
3	5425	5.609733385287	35673
3	5435	5.623573385287	35814
3	5445	5.637413385287	35955
3	5464	5.651253385287	36096
3	5474	5.665093385287	36237
3	5484	5.678933385287	36378
3	5494	5.692773385287	36519
3	5522	5.706613385287	36660
3	5532	5.720453385287	36801
3	5542	5.734293385287	36942
3	5552	5.748133385287	37083
3	5571	5.761973385287	37224
3	5581	5.775813385287	37365
3	5591	5.789653385287	37506
3	5616	5.803493385287	37647
3	5626	5.817333385287	37788
3	5636	5.831173385287	37929
3	5646	5.845013385287	38070
3	5665	5.858853385287	38211
3	5675	5.872693385287	38352
3	5685	5.886533385287	38493
3	5713	5.900373385287	38634
3	5723	5.914213385287	38775
3	5733	5.928053385287	38916
3	5743	5.941893385287	39057
3	5762	5.955733385287	39198
3	5772	5.969573385287	39339
3	5782	5.983413385287	39480
3	5811	6.011093385287	39621
3	5821	6.024933385287	39762
3	5831	6.038773385287	39903
3	5850	6.052613385287	40044
3	5857	6.066453385287	40185
3	5867	6.080293385287	40326
3	5877	6.094133385287	40467
3	5905	6.107973385287	40608
3	5915	6.121813385287	40749
3	5925	6.135653385287	40890
3	5935	6.149493385287	41031
3	5954	6.163333385287	41172
3	5964	6.177173385287	41313
3	5974	6.191013385287	41454
3	5999	6.204853385287	41595
3	6009	6.218693385287	41736
3	6019	6.232533385287	41877
3	6029	6.246373385287	42018
3	6048	6.260213385287	42159
3	6058	6.274053385287	42300
3	6068	6.287893385287	42441
3	6096	6.301733385287	42582
3	6106	6.315573385287	42723
3	6116	6.329413385287	42864
3	6126	6.343253385287	43005
3	6145	6.357093385287	43146
3	6155	6.370933385287	43287
3	6165	6.384773385287	43428
3	6175	6.398613385287	43569
3	6245	6.445882578373	43710
3	6264	6.459722578373	43851
3	6274	6.473562578373	43992
3	6284	6.487402578373	44133
3	6312	6.501242578373	44274
3	6322	6.515082578373	44415

