version 2
run A2-0-20190929-16:44:43-10912
attr configname A2
attr datetime 20190929-16:44:43
attr experiment A2
attr inifile SimV2.ini
attr iterationvars ""
attr iterationvarsf ""
attr measurement ""
attr network NetworkTormV2
attr processid 10912
attr repetition 0
attr replication #0
attr resultdir results
attr runnumber 0
attr seedset 0
param **.mobility.traceFile "\"paths/A.movements\""
param **.numNodes 3
param **.wirelessIfc.wirelessRange 40m
param **.bluetoothIfc.wirelessRange 40m
param **application.destinationAddr "\"Wf:00:00:00:00:02\""
param **application.destinationBTAddr "\"Bt:00:00:00:00:02\""
param **application.nodesThatGen true
param **application.nodesGenMsg "\"0,1\""
param **application.startMultipleMsg true
param **application.numMultipleMsg 100
param **application.hopsListSize 50
param **.numNodes 2
param **.application.usedRNG 1
param **.application.dataGenerationInterval 1ms
param **.application.dataSizeInBytes 10
param **.application.ttl 999999s
param **application.destinationAddr "\"Wf:00:00:00:00:02\""
param **application.destinationBTAddr "\"Bt:00:00:00:00:02\""
param **application.nodesThatGen true
param **application.nodesGenMsg "\"0\""
param **application.startMultipleMsg true
param **application.numMultipleMsg 100
param **application.hopsListSize 50
param **.application.endGeneratingMsg 999999s
param **.routingLayer "\"RoutingLqeGw\""
param **.routing.maximumCacheSize 5000byte
param **.routing.maximumHopCount 25
param **.routing.useTTL false
param **.routing.waitBFsend 0.5
param **.routing.max_age 999999s
param **.routing.gateway_list "\"Wf:00:00:00:00:02;0|.\""
param **.routing.actual_gateway "\"Wf:00:00:00:00:02\""
param **.routing.gwCheckPeriod 5s
param **.neighboring.antiEntropyInterval 500ms
param **.neighboring.maximumRandomBackoffDuration 1s
param **.neighboring.delayPerDataMsg 0.1
param **neighboring.usedRNG 2
param **.neighboring.GWAddr "\"Wf:00:00:00:00:02\""
param **.neighboring.sendWifiFirst true
param **.neighboring.maxLengthGraph 20
param **.neighboring.max_age 999999s
param **.neighboring.max_absent_time 1s
param **.wirelessIfc.wirelessRange 15m
param **.wirelessIfc.neighbourScanInterval 50ms
param **.wirelessIfc.bandwidthBitRate 100000bps
param **.wirelessIfc.wirelessHeaderSize 32byte
param **.wirelessIfc.minSSI -90
param **.wirelessIfc.limitQueueTime 400ms
param **.wirelessIfc.my_limit_rate 0bps
param **.bluetoothIfc.wirelessRange 15m
param **.bluetoothIfc.neighbourScanInterval 100ms
param **.bluetoothIfc.bandwidthBitRate 100000bps
param **.bluetoothIfc.wirelessHeaderSize 16byte
param **.bluetoothIfc.minSSI -90
param **.mobilityType "\"BonnMotionMobility\""
param **.mobility.traceFile "\"paths/Moves2.movements\""
param **.mobility.is3D false
param **.mobility.nodeId -1

vector 0 NetworkTormV2 neighbourhoodSize:vector ETV
attr source neighbourhoodSize
vector 1 NetworkTormV2 deliveryRatio:vector ETV
attr source sum(totalDataBytesReceived)/sum(totalDataBytesReceivableByAllNodes)
vector 2 NetworkTormV2 dataBytesReceivedSum:vector ETV
attr source sum(dataBytesReceived)
vector 3 NetworkTormV2 totalBytesReceivedSum:vector ETV
attr source sum(totalBytesReceived)
0	10	0.05	1
0	11	0.05	2
0	12	0.05	1
0	23	0.1	1
0	25	0.1	2
0	26	0.1	1
0	27	0.1	1
0	28	0.1	2
0	29	0.1	1
0	243	0.15	1
0	244	0.15	2
0	245	0.15	1
0	455	0.2	1
0	456	0.2	2
0	457	0.2	1
0	458	0.2	1
0	459	0.2	2
0	460	0.2	1
0	476	0.25	1
0	477	0.25	2
0	478	0.25	1
0	488	0.3	1
0	489	0.3	2
0	490	0.3	1
0	491	0.3	1
0	492	0.3	2
0	493	0.3	1
0	509	0.35	1
0	510	0.35	2
0	511	0.35	1
0	521	0.4	1
0	522	0.4	2
0	523	0.4	1
0	524	0.4	1
0	525	0.4	2
0	526	0.4	1
0	542	0.45	1
0	543	0.45	2
0	544	0.45	1
0	554	0.5	1
0	555	0.5	2
0	556	0.5	1
0	557	0.5	1
0	558	0.5	2
0	559	0.5	1
0	575	0.55	1
0	576	0.55	2
0	577	0.55	1
0	587	0.6	1
0	588	0.6	2
0	589	0.6	1
0	590	0.6	1
0	591	0.6	2
0	592	0.6	1
0	608	0.65	1
0	609	0.65	2
0	610	0.65	1
0	620	0.7	1
0	621	0.7	2
0	622	0.7	1
0	623	0.7	1
0	624	0.7	2
0	625	0.7	1
0	641	0.75	1
0	642	0.75	2
0	643	0.75	1
0	653	0.8	1
0	654	0.8	2
0	655	0.8	1
0	656	0.8	1
0	657	0.8	2
0	658	0.8	1
0	674	0.85	1
0	675	0.85	2
0	676	0.85	1
0	686	0.9	1
0	687	0.9	2
0	688	0.9	1
0	689	0.9	1
0	690	0.9	2
0	691	0.9	1
0	707	0.95	1
0	708	0.95	2
0	709	0.95	1
0	719	1	1
0	720	1	2
0	721	1	1
0	722	1	1
0	723	1	2
0	724	1	1
0	740	1.05	1
0	741	1.05	2
0	742	1.05	1
0	752	1.1	1
0	753	1.1	2
0	754	1.1	1
0	755	1.1	1
0	756	1.1	2
0	757	1.1	1
0	1039	1.15	1
0	1040	1.15	2
0	1041	1.15	1
0	1087	1.2	1
0	1088	1.2	2
0	1089	1.2	1
0	1090	1.2	1
0	1091	1.2	2
0	1092	1.2	1
0	1142	1.25	1
0	1143	1.25	2
0	1144	1.25	1
0	1194	1.3	1
0	1195	1.3	2
0	1196	1.3	1
0	1197	1.3	1
0	1198	1.3	2
0	1199	1.3	1
0	1245	1.35	1
0	1246	1.35	2
0	1247	1.35	1
0	1297	1.4	1
0	1298	1.4	2
0	1299	1.4	1
0	1300	1.4	1
0	1301	1.4	2
0	1302	1.4	1
0	1349	1.45	1
0	1350	1.45	2
0	1351	1.45	1
0	1388	1.5	1
0	1389	1.5	2
0	1390	1.5	1
0	1391	1.5	1
0	1392	1.5	2
0	1393	1.5	1
0	1449	1.55	1
0	1450	1.55	2
0	1451	1.55	1
0	1488	1.6	1
0	1489	1.6	2
0	1490	1.6	1
0	1491	1.6	1
0	1492	1.6	2
0	1493	1.6	1
0	1543	1.65	1
0	1544	1.65	2
0	1545	1.65	1
0	1614	1.7	1
0	1615	1.7	2
0	1616	1.7	1
0	1617	1.7	1
0	1618	1.7	2
0	1619	1.7	1
0	1665	1.75	1
0	1666	1.75	2
0	1667	1.75	1
0	1708	1.8	1
0	1709	1.8	2
0	1710	1.8	1
0	1711	1.8	1
0	1712	1.8	2
0	1713	1.8	1
0	1762	1.85	1
0	1763	1.85	2
0	1764	1.85	1
0	1808	1.9	1
0	1809	1.9	2
0	1810	1.9	1
0	1811	1.9	1
0	1812	1.9	2
0	1813	1.9	1
0	1866	1.95	1
0	1867	1.95	2
0	1868	1.95	1
0	1908	2	1
0	1909	2	2
0	1910	2	1
0	1911	2	1
0	1912	2	2
0	1913	2	1
0	1966	2.05	1
0	1967	2.05	2
0	1968	2.05	1
0	2014	2.1	1
0	2015	2.1	2
0	2016	2.1	1
0	2017	2.1	1
0	2018	2.1	2
0	2019	2.1	1
0	2066	2.15	1
0	2067	2.15	2
0	2068	2.15	1
0	2118	2.2	1
0	2119	2.2	2
0	2120	2.2	1
0	2121	2.2	1
0	2122	2.2	2
0	2123	2.2	1
0	2179	2.25	1
0	2180	2.25	2
0	2181	2.25	1
0	2225	2.3	1
0	2226	2.3	2
0	2227	2.3	1
0	2228	2.3	1
0	2229	2.3	2
0	2230	2.3	1
0	2286	2.35	1
0	2287	2.35	2
0	2288	2.35	1
0	2328	2.4	1
0	2329	2.4	2
0	2330	2.4	1
0	2331	2.4	1
0	2332	2.4	2
0	2333	2.4	1
0	2380	2.45	1
0	2381	2.45	2
0	2382	2.45	1
0	2428	2.5	1
0	2429	2.5	2
0	2430	2.5	1
0	2431	2.5	1
0	2432	2.5	2
0	2433	2.5	1
0	2467	2.55	1
0	2468	2.55	2
0	2469	2.55	1
0	2543	2.6	1
0	2544	2.6	2
0	2545	2.6	1
0	2546	2.6	1
0	2547	2.6	2
0	2548	2.6	1
0	2597	2.65	1
0	2598	2.65	2
0	2599	2.65	1
0	2640	2.7	1
0	2641	2.7	2
0	2642	2.7	1
0	2643	2.7	1
0	2644	2.7	2
0	2645	2.7	1
0	2910	2.75	1
0	2911	2.75	2
0	2912	2.75	1
0	2955	2.8	1
0	2956	2.8	2
0	2957	2.8	1
0	2958	2.8	1
0	2959	2.8	2
0	2960	2.8	1
0	3010	2.85	1
0	3011	2.85	2
0	3012	2.85	1
0	3085	2.9	1
0	3086	2.9	2
0	3087	2.9	1
0	3088	2.9	1
0	3089	2.9	2
0	3090	2.9	1
0	3142	2.95	1
0	3143	2.95	2
0	3144	2.95	1
0	3185	3	1
0	3186	3	2
0	3187	3	1
0	3188	3	1
0	3189	3	2
0	3190	3	1
0	3246	3.05	1
0	3247	3.05	2
0	3248	3.05	1
0	3276	3.1	1
0	3277	3.1	2
0	3278	3.1	1
0	3279	3.1	1
0	3280	3.1	2
0	3281	3.1	1
0	3325	3.15	1
0	3326	3.15	2
0	3327	3.15	1
0	3373	3.2	1
0	3374	3.2	2
0	3375	3.2	1
0	3376	3.2	1
0	3377	3.2	2
0	3378	3.2	1
0	3428	3.25	1
0	3429	3.25	2
0	3430	3.25	1
0	3496	3.3	1
0	3497	3.3	2
0	3498	3.3	1
0	3499	3.3	1
0	3500	3.3	2
0	3501	3.3	1
0	3547	3.35	1
0	3548	3.35	2
0	3549	3.35	1
0	3596	3.4	1
0	3597	3.4	2
0	3598	3.4	1
0	3599	3.4	1
0	3600	3.4	2
0	3601	3.4	1
0	3667	3.45	1
0	3668	3.45	2
0	3669	3.45	1
0	3704	3.5	1
0	3705	3.5	2
0	3706	3.5	1
0	3707	3.5	1
0	3708	3.5	2
0	3709	3.5	1
0	3756	3.55	1
0	3757	3.55	2
0	3758	3.55	1
0	3786	3.6	1
0	3787	3.6	2
0	3788	3.6	1
0	3789	3.6	1
0	3790	3.6	2
0	3791	3.6	1
0	3847	3.65	1
0	3848	3.65	2
0	3849	3.65	1
0	3899	3.7	1
0	3900	3.7	2
0	3901	3.7	1
0	3902	3.7	1
0	3903	3.7	2
0	3904	3.7	1
0	3950	3.75	1
0	3951	3.75	2
0	3952	3.75	1
0	4002	3.8	1
0	4003	3.8	2
0	4004	3.8	1
0	4005	3.8	1
0	4006	3.8	2
0	4007	3.8	1
0	4073	3.85	1
0	4074	3.85	2
0	4075	3.85	1
0	4110	3.9	1
0	4111	3.9	2
0	4112	3.9	1
0	4113	3.9	1
0	4114	3.9	2
0	4115	3.9	1
0	4171	3.95	1
0	4172	3.95	2
0	4173	3.95	1
0	4227	4	1
0	4228	4	2
0	4229	4	1
0	4230	4	1
0	4231	4	2
0	4232	4	1
0	4282	4.05	1
0	4283	4.05	2
0	4284	4.05	1
0	4327	4.1	1
0	4328	4.1	2
0	4329	4.1	1
0	4330	4.1	1
0	4331	4.1	2
0	4332	4.1	1
0	4354	4.15	1
0	4355	4.15	2
0	4356	4.15	1
0	4366	4.2	1
0	4367	4.2	2
0	4368	4.2	1
0	4369	4.2	1
0	4370	4.2	2
0	4371	4.2	1
0	4387	4.25	1
0	4388	4.25	2
0	4389	4.25	1
0	4399	4.3	1
0	4400	4.3	2
0	4401	4.3	1
0	4402	4.3	1
0	4403	4.3	2
0	4404	4.3	1
0	4420	4.35	1
0	4421	4.35	2
0	4422	4.35	1
0	4446	4.4	1
0	4447	4.4	2
0	4448	4.4	1
0	4449	4.4	1
0	4450	4.4	2
0	4451	4.4	1
0	4467	4.45	1
0	4468	4.45	2
0	4469	4.45	1
0	4493	4.5	1
0	4494	4.5	2
0	4495	4.5	1
0	4496	4.5	1
0	4497	4.5	2
0	4498	4.5	1
0	4528	4.55	1
0	4529	4.55	2
0	4530	4.55	1
0	4540	4.6	1
0	4541	4.6	2
0	4542	4.6	1
0	4543	4.6	1
0	4544	4.6	2
0	4545	4.6	1
0	4627	4.65	1
0	4628	4.65	2
0	4629	4.65	1
0	4663	4.7	1
0	4664	4.7	2
0	4665	4.7	1
0	4666	4.7	1
0	4667	4.7	2
0	4668	4.7	1
0	4718	4.75	1
0	4719	4.75	2
0	4720	4.75	1
0	4770	4.8	1
0	4771	4.8	2
0	4772	4.8	1
0	4773	4.8	1
0	4774	4.8	2
0	4775	4.8	1
0	4821	4.85	1
0	4822	4.85	2
0	4823	4.85	1
0	4833	4.9	1
0	4834	4.9	2
0	4835	4.9	1
0	4836	4.9	1
0	4837	4.9	2
0	4838	4.9	1
0	4868	4.95	1
0	4869	4.95	2
0	4870	4.95	1
0	4883	5	1
0	4884	5	2
0	4885	5	1
0	4886	5	1
0	4887	5	2
0	4888	5	1
0	4918	5.05	1
0	4919	5.05	2
0	4920	5.05	1
0	4944	5.1	1
0	4945	5.1	2
0	4946	5.1	1
0	4947	5.1	1
0	4948	5.1	2
0	4949	5.1	1
0	4965	5.15	1
0	4966	5.15	2
0	4967	5.15	1
0	5015	5.2	1
0	5016	5.2	2
0	5017	5.2	1
0	5018	5.2	1
0	5019	5.2	2
0	5020	5.2	1
0	5036	5.25	1
0	5037	5.25	2
0	5038	5.25	1
0	5048	5.3	1
0	5049	5.3	2
0	5050	5.3	1
0	5051	5.3	1
0	5052	5.3	2
0	5053	5.3	1
0	5069	5.35	1
0	5070	5.35	2
0	5071	5.35	1
0	5081	5.4	1
0	5082	5.4	2
0	5083	5.4	1
0	5084	5.4	1
0	5085	5.4	2
0	5086	5.4	1
0	5102	5.45	1
0	5103	5.45	2
0	5104	5.45	1
0	5117	5.5	1
0	5118	5.5	2
0	5119	5.5	1
0	5120	5.5	1
0	5121	5.5	2
0	5122	5.5	1
0	5138	5.55	1
0	5139	5.55	2
0	5140	5.55	1
0	5164	5.6	1
0	5165	5.6	2
0	5166	5.6	1
0	5167	5.6	1
0	5168	5.6	2
0	5169	5.6	1
0	5185	5.65	1
0	5186	5.65	2
0	5187	5.65	1
0	5197	5.7	1
0	5198	5.7	2
0	5199	5.7	1
0	5200	5.7	1
0	5201	5.7	2
0	5202	5.7	1
0	5232	5.75	1
0	5233	5.75	2
0	5234	5.75	1
0	5244	5.8	1
0	5245	5.8	2
0	5246	5.8	1
0	5247	5.8	1
0	5248	5.8	2
0	5249	5.8	1
0	5265	5.85	1
0	5266	5.85	2
0	5267	5.85	1
0	5277	5.9	1
0	5278	5.9	2
0	5279	5.9	1
0	5280	5.9	1
0	5281	5.9	2
0	5282	5.9	1
0	5298	5.95	1
0	5299	5.95	2
0	5300	5.95	1
0	5310	6	1
0	5311	6	2
0	5312	6	1
0	5313	6	1
0	5314	6	2
0	5315	6	1
0	5331	6.05	1
0	5332	6.05	2
0	5333	6.05	1
0	5343	6.1	1
0	5344	6.1	2
0	5345	6.1	1
0	5346	6.1	1
0	5347	6.1	2
0	5348	6.1	1
0	5378	6.15	1
0	5379	6.15	2
0	5380	6.15	1
0	5390	6.2	1
0	5391	6.2	2
0	5392	6.2	1
0	5393	6.2	1
0	5394	6.2	2
0	5395	6.2	1
0	5411	6.25	1
0	5412	6.25	2
0	5413	6.25	1
0	5437	6.3	1
0	5438	6.3	2
0	5439	6.3	1
0	5440	6.3	1
0	5441	6.3	2
0	5442	6.3	1
0	5458	6.35	1
0	5459	6.35	2
0	5460	6.35	1
0	5470	6.4	1
0	5471	6.4	2
0	5472	6.4	1
0	5473	6.4	1
0	5474	6.4	2
0	5475	6.4	1
0	5491	6.45	1
0	5492	6.45	2
0	5493	6.45	1
0	5503	6.5	1
0	5504	6.5	2
0	5505	6.5	1
0	5506	6.5	1
0	5507	6.5	2
0	5508	6.5	1
0	5524	6.55	1
0	5525	6.55	2
0	5526	6.55	1
0	5536	6.6	1
0	5537	6.6	2
0	5538	6.6	1
0	5539	6.6	1
0	5540	6.6	2
0	5541	6.6	1
0	5557	6.65	1
0	5558	6.65	2
0	5559	6.65	1
0	5597	6.7	1
0	5598	6.7	2
0	5599	6.7	1
0	5600	6.7	1
0	5601	6.7	2
0	5602	6.7	1
0	5618	6.75	1
0	5619	6.75	2
0	5620	6.75	1
0	5630	6.8	1
0	5631	6.8	2
0	5632	6.8	1
0	5633	6.8	1
0	5634	6.8	2
0	5635	6.8	1
0	5679	6.85	1
0	5680	6.85	2
0	5681	6.85	1
0	5691	6.9	1
0	5692	6.9	2
0	5693	6.9	1
0	5694	6.9	1
0	5695	6.9	2
0	5696	6.9	1
0	5712	6.95	1
0	5713	6.95	2
0	5714	6.95	1
0	5724	7	1
0	5725	7	2
0	5726	7	1
0	5727	7	1
0	5728	7	2
0	5729	7	1
0	5745	7.05	1
0	5746	7.05	2
0	5747	7.05	1
0	5757	7.1	1
0	5758	7.1	2
0	5759	7.1	1
0	5760	7.1	1
0	5761	7.1	2
0	5762	7.1	1
0	5778	7.15	1
0	5779	7.15	2
0	5780	7.15	1
0	5790	7.2	1
0	5791	7.2	2
0	5792	7.2	1
0	5793	7.2	1
0	5794	7.2	2
0	5795	7.2	1
0	6044	7.25	1
0	6045	7.25	2
0	6046	7.25	1
0	6096	7.3	1
0	6097	7.3	2
0	6098	7.3	1
0	6099	7.3	1
0	6100	7.3	2
0	6101	7.3	1
0	6153	7.35	1
0	6154	7.35	2
0	6155	7.35	1
0	6217	7.4	1
0	6218	7.4	2
0	6219	7.4	1
0	6220	7.4	1
0	6221	7.4	2
0	6222	7.4	1
0	6278	7.45	1
0	6279	7.45	2
0	6280	7.45	1
0	6320	7.5	1
0	6321	7.5	2
0	6322	7.5	1
0	6323	7.5	1
0	6324	7.5	2
0	6325	7.5	1
0	6381	7.55	1
0	6382	7.55	2
0	6383	7.55	1
0	6429	7.6	1
0	6430	7.6	2
0	6431	7.6	1
0	6432	7.6	1
0	6433	7.6	2
0	6434	7.6	1
0	6484	7.65	1
0	6485	7.65	2
0	6486	7.65	1
0	6536	7.7	1
0	6537	7.7	2
0	6538	7.7	1
0	6539	7.7	1
0	6540	7.7	2
0	6541	7.7	1
0	6587	7.75	1
0	6588	7.75	2
0	6589	7.75	1
0	6643	7.8	1
0	6644	7.8	2
0	6645	7.8	1
0	6646	7.8	1
0	6647	7.8	2
0	6648	7.8	1
0	6704	7.85	1
0	6705	7.85	2
0	6706	7.85	1
0	6737	7.9	1
0	6738	7.9	2
0	6739	7.9	1
0	6740	7.9	1
0	6741	7.9	2
0	6742	7.9	1
0	6798	7.95	1
0	6799	7.95	2
0	6800	7.95	1
0	6846	8	1
0	6847	8	2
0	6848	8	1
0	6849	8	1
0	6850	8	2
0	6851	8	1
0	6901	8.05	1
0	6902	8.05	2
0	6903	8.05	1
0	6944	8.1	1
0	6945	8.1	2
0	6946	8.1	1
0	6947	8.1	1
0	6948	8.1	2
0	6949	8.1	1
0	6992	8.15	1
0	6993	8.15	2
0	6994	8.15	1
0	7044	8.2	1
0	7045	8.2	2
0	7046	8.2	1
0	7047	8.2	1
0	7048	8.2	2
0	7049	8.2	1
0	7101	8.25	1
0	7102	8.25	2
0	7103	8.25	1
0	7144	8.3	1
0	7145	8.3	2
0	7146	8.3	1
0	7147	8.3	1
0	7148	8.3	2
0	7149	8.3	1
0	7205	8.35	1
0	7206	8.35	2
0	7207	8.35	1
0	7247	8.4	1
0	7248	8.4	2
0	7249	8.4	1
0	7250	8.4	1
0	7251	8.4	2
0	7252	8.4	1
0	7308	8.45	1
0	7309	8.45	2
0	7310	8.45	1
0	7356	8.5	1
0	7357	8.5	2
0	7358	8.5	1
0	7359	8.5	1
0	7360	8.5	2
0	7361	8.5	1
0	7411	8.55	1
0	7412	8.55	2
0	7413	8.55	1
0	7463	8.6	1
0	7464	8.6	2
0	7465	8.6	1
0	7466	8.6	1
0	7467	8.6	2
0	7468	8.6	1
0	7516	8.65	1
0	7517	8.65	2
0	7518	8.65	1
0	7530	8.7	1
0	7531	8.7	2
0	7532	8.7	1
0	7533	8.7	1
0	7534	8.7	2
0	7535	8.7	1
0	7551	8.75	1
0	7552	8.75	2
0	7553	8.75	1
0	7563	8.8	1
0	7564	8.8	2
0	7565	8.8	1
0	7566	8.8	1
0	7567	8.8	2
0	7568	8.8	1
0	7584	8.85	1
0	7585	8.85	2
0	7586	8.85	1
0	7596	8.9	1
0	7597	8.9	2
0	7598	8.9	1
0	7599	8.9	1
0	7600	8.9	2
0	7601	8.9	1
0	7645	8.95	1
0	7646	8.95	2
0	7647	8.95	1
0	7657	9	1
0	7658	9	2
0	7659	9	1
0	7660	9	1
0	7661	9	2
0	7662	9	1
0	7678	9.05	1
0	7679	9.05	2
0	7680	9.05	1
0	7738	9.1	1
0	7739	9.1	2
0	7740	9.1	1
0	7741	9.1	1
0	7742	9.1	2
0	7743	9.1	1
0	7799	9.15	1
0	7800	9.15	2
0	7801	9.15	1
0	7811	9.2	1
0	7812	9.2	2
0	7813	9.2	1
0	7814	9.2	1
0	7815	9.2	2
0	7816	9.2	1
0	7832	9.25	1
0	7833	9.25	2
0	7834	9.25	1
0	7844	9.3	1
0	7845	9.3	2
0	7846	9.3	1
0	7847	9.3	1
0	7848	9.3	2
0	7849	9.3	1
0	7865	9.35	1
0	7866	9.35	2
0	7867	9.35	1
0	7877	9.4	1
0	7878	9.4	2
0	7879	9.4	1
0	7880	9.4	1
0	7881	9.4	2
0	7882	9.4	1
0	7898	9.45	1
0	7899	9.45	2
0	7900	9.45	1
0	7938	9.5	1
0	7939	9.5	2
0	7940	9.5	1
0	7941	9.5	1
0	7942	9.5	2
0	7943	9.5	1
0	7959	9.55	1
0	7960	9.55	2
0	7961	9.55	1
0	7971	9.6	1
0	7972	9.6	2
0	7973	9.6	1
0	7974	9.6	1
0	7975	9.6	2
0	7976	9.6	1
0	8020	9.65	1
0	8021	9.65	2
0	8022	9.65	1
0	8032	9.7	1
0	8033	9.7	2
0	8034	9.7	1
0	8035	9.7	1
0	8036	9.7	2
0	8037	9.7	1
0	8053	9.75	1
0	8054	9.75	2
0	8055	9.75	1
0	8065	9.8	1
0	8066	9.8	2
0	8067	9.8	1
0	8068	9.8	1
0	8069	9.8	2
0	8070	9.8	1
0	8086	9.85	1
0	8087	9.85	2
0	8088	9.85	1
0	8098	9.9	1
0	8099	9.9	2
0	8100	9.9	1
0	8101	9.9	1
0	8102	9.9	2
0	8103	9.9	1
0	8119	9.95	1
0	8120	9.95	2
0	8121	9.95	1
0	8134	10	1
0	8135	10	2
0	8136	10	1
0	8137	10	1
0	8138	10	2
0	8139	10	1
0	8172	10.05	1
0	8173	10.05	2
0	8174	10.05	1
0	8184	10.1	1
0	8185	10.1	2
0	8186	10.1	1
0	8187	10.1	1
0	8188	10.1	2
0	8189	10.1	1
0	8205	10.15	1
0	8206	10.15	2
0	8207	10.15	1
0	8231	10.2	1
0	8232	10.2	2
0	8233	10.2	1
0	8234	10.2	1
0	8235	10.2	2
0	8236	10.2	1
0	8252	10.25	1
0	8253	10.25	2
0	8254	10.25	1
0	8264	10.3	1
0	8265	10.3	2
0	8266	10.3	1
0	8267	10.3	1
0	8268	10.3	2
0	8269	10.3	1
0	8285	10.35	1
0	8286	10.35	2
0	8287	10.35	1
0	8297	10.4	1
0	8298	10.4	2
0	8299	10.4	1
0	8300	10.4	1
0	8301	10.4	2
0	8302	10.4	1
0	8318	10.45	1
0	8319	10.45	2
0	8320	10.45	1
0	8330	10.5	1
0	8331	10.5	2
0	8332	10.5	1
0	8333	10.5	1
0	8334	10.5	2
0	8335	10.5	1
0	8351	10.55	1
0	8352	10.55	2
0	8353	10.55	1
0	8377	10.6	1
0	8378	10.6	2
0	8379	10.6	1
0	8380	10.6	1
0	8381	10.6	2
0	8382	10.6	1
0	8398	10.65	1
0	8399	10.65	2
0	8400	10.65	1
0	8410	10.7	1
0	8411	10.7	2
0	8412	10.7	1
0	8413	10.7	1
0	8414	10.7	2
0	8415	10.7	1
0	8445	10.75	1
0	8446	10.75	2
0	8447	10.75	1
0	8457	10.8	1
0	8458	10.8	2
0	8459	10.8	1
0	8460	10.8	1
0	8461	10.8	2
0	8462	10.8	1
0	8478	10.85	1
0	8479	10.85	2
0	8480	10.85	1
0	8490	10.9	1
0	8491	10.9	2
0	8492	10.9	1
0	8493	10.9	1
0	8494	10.9	2
0	8495	10.9	1
0	8511	10.95	1
0	8512	10.95	2
0	8513	10.95	1
0	8523	11	1
0	8524	11	2
0	8525	11	1
0	8526	11	1
0	8527	11	2
0	8528	11	1
0	8544	11.05	1
0	8545	11.05	2
0	8546	11.05	1
0	8556	11.1	1
0	8557	11.1	2
0	8558	11.1	1
0	8559	11.1	1
0	8560	11.1	2
0	8561	11.1	1
0	8580	11.15	1
0	8581	11.15	2
0	8582	11.15	1
0	8592	11.2	1
0	8593	11.2	2
0	8594	11.2	1
0	8595	11.2	1
0	8596	11.2	2
0	8597	11.2	1
0	8627	11.25	1
0	8628	11.25	2
0	8629	11.25	1
0	8639	11.3	1
0	8640	11.3	2
0	8641	11.3	1
0	8642	11.3	1
0	8643	11.3	2
0	8644	11.3	1
0	8660	11.35	1
0	8661	11.35	2
0	8662	11.35	1
0	8686	11.4	1
0	8687	11.4	2
0	8688	11.4	1
0	8689	11.4	1
0	8690	11.4	2
0	8691	11.4	1
0	8707	11.45	1
0	8708	11.45	2
0	8709	11.45	1
0	8719	11.5	1
0	8720	11.5	2
0	8721	11.5	1
0	8722	11.5	1
0	8723	11.5	2
0	8724	11.5	1
0	8740	11.55	1
0	8741	11.55	2
0	8742	11.55	1
0	8752	11.6	1
0	8753	11.6	2
0	8754	11.6	1
0	8755	11.6	1
0	8756	11.6	2
0	8757	11.6	1
0	8773	11.65	1
0	8774	11.65	2
0	8775	11.65	1
0	8785	11.7	1
0	8786	11.7	2
0	8787	11.7	1
0	8788	11.7	1
0	8789	11.7	2
0	8790	11.7	1
0	8806	11.75	1
0	8807	11.75	2
0	8808	11.75	1
0	8832	11.8	1
0	8833	11.8	2
0	8834	11.8	1
0	8835	11.8	1
0	8836	11.8	2
0	8837	11.8	1
0	8853	11.85	1
0	8854	11.85	2
0	8855	11.85	1
0	8865	11.9	1
0	8866	11.9	2
0	8867	11.9	1
0	8868	11.9	1
0	8869	11.9	2
0	8870	11.9	1
0	8900	11.95	1
0	8901	11.95	2
0	8902	11.95	1
0	8912	12	1
0	8913	12	2
0	8914	12	1
0	8915	12	1
0	8916	12	2
0	8917	12	1
0	8933	12.05	1
0	8934	12.05	2
0	8935	12.05	1
0	8945	12.1	1
0	8946	12.1	2
0	8947	12.1	1
0	8948	12.1	1
0	8949	12.1	2
0	8950	12.1	1
0	8966	12.15	1
0	8967	12.15	2
0	8968	12.15	1
0	8978	12.2	1
0	8979	12.2	2
0	8980	12.2	1
0	8981	12.2	1
0	8982	12.2	2
0	8983	12.2	1
0	8999	12.25	1
0	9000	12.25	2
0	9001	12.25	1
0	9011	12.3	1
0	9012	12.3	2
0	9013	12.3	1
0	9014	12.3	1
0	9015	12.3	2
0	9016	12.3	1
0	9049	12.35	1
0	9050	12.35	2
0	9051	12.35	1
0	9061	12.4	1
0	9062	12.4	2
0	9063	12.4	1
0	9064	12.4	1
0	9065	12.4	2
0	9066	12.4	1
0	9082	12.45	1
0	9083	12.45	2
0	9084	12.45	1
0	9108	12.5	1
0	9109	12.5	2
0	9110	12.5	1
0	9111	12.5	1
0	9112	12.5	2
0	9113	12.5	1
0	9129	12.55	1
0	9130	12.55	2
0	9131	12.55	1
0	9141	12.6	1
0	9142	12.6	2
0	9143	12.6	1
0	9144	12.6	1
0	9145	12.6	2
0	9146	12.6	1
0	9162	12.65	1
0	9163	12.65	2
0	9164	12.65	1
0	9174	12.7	1
0	9175	12.7	2
0	9176	12.7	1
0	9177	12.7	1
0	9178	12.7	2
0	9179	12.7	1
0	9195	12.75	1
0	9196	12.75	2
0	9197	12.75	1
0	9207	12.8	1
0	9208	12.8	2
0	9209	12.8	1
0	9210	12.8	1
0	9211	12.8	2
0	9212	12.8	1
0	9228	12.85	1
0	9229	12.85	2
0	9230	12.85	1
0	9254	12.9	1
0	9255	12.9	2
0	9256	12.9	1
0	9257	12.9	1
0	9258	12.9	2
0	9259	12.9	1
0	9275	12.95	1
0	9276	12.95	2
0	9277	12.95	1
0	9287	13	1
0	9288	13	2
0	9289	13	1
0	9290	13	1
0	9291	13	2
0	9292	13	1
0	9322	13.05	1
0	9323	13.05	2
0	9324	13.05	1
0	9334	13.1	1
0	9335	13.1	2
0	9336	13.1	1
0	9337	13.1	1
0	9338	13.1	2
0	9339	13.1	1
0	9355	13.15	1
0	9356	13.15	2
0	9357	13.15	1
0	9367	13.2	1
0	9368	13.2	2
0	9369	13.2	1
0	9370	13.2	1
0	9371	13.2	2
0	9372	13.2	1
0	9388	13.25	1
0	9389	13.25	2
0	9390	13.25	1
0	9400	13.3	1
0	9401	13.3	2
0	9402	13.3	1
0	9403	13.3	1
0	9404	13.3	2
0	9405	13.3	1
0	9421	13.35	1
0	9422	13.35	2
0	9423	13.35	1
0	9433	13.4	1
0	9434	13.4	2
0	9435	13.4	1
0	9436	13.4	1
0	9437	13.4	2
0	9438	13.4	1
0	9468	13.45	1
0	9469	13.45	2
0	9470	13.45	1
0	9480	13.5	1
0	9481	13.5	2
0	9482	13.5	1
0	9483	13.5	1
0	9484	13.5	2
0	9485	13.5	1
0	9515	13.55	1
0	9516	13.55	2
0	9517	13.55	1
0	9530	13.6	1
0	9531	13.6	2
0	9532	13.6	1
0	9533	13.6	1
0	9534	13.6	2
0	9535	13.6	1
0	9551	13.65	1
0	9552	13.65	2
0	9553	13.65	1
0	9577	13.7	1
0	9578	13.7	2
0	9579	13.7	1
0	9580	13.7	1
0	9581	13.7	2
0	9582	13.7	1
0	9598	13.75	1
0	9599	13.75	2
0	9600	13.75	1
0	9610	13.8	1
0	9611	13.8	2
0	9612	13.8	1
0	9613	13.8	1
0	9614	13.8	2
0	9615	13.8	1
0	9631	13.85	1
0	9632	13.85	2
0	9633	13.85	1
0	9643	13.9	1
0	9644	13.9	2
0	9645	13.9	1
0	9646	13.9	1
0	9647	13.9	2
0	9648	13.9	1
0	9664	13.95	1
0	9665	13.95	2
0	9666	13.95	1
0	9676	14	1
0	9677	14	2
0	9678	14	1
0	9679	14	1
0	9680	14	2
0	9681	14	1
0	9697	14.05	1
0	9698	14.05	2
0	9699	14.05	1
0	9723	14.1	1
0	9724	14.1	2
0	9725	14.1	1
0	9726	14.1	1
0	9727	14.1	2
0	9728	14.1	1
0	9744	14.15	1
0	9745	14.15	2
0	9746	14.15	1
0	9756	14.2	1
0	9757	14.2	2
0	9758	14.2	1
0	9759	14.2	1
0	9760	14.2	2
0	9761	14.2	1
0	9791	14.25	1
0	9792	14.25	2
0	9793	14.25	1
0	9803	14.3	1
0	9804	14.3	2
0	9805	14.3	1
0	9806	14.3	1
0	9807	14.3	2
0	9808	14.3	1
0	9824	14.35	1
0	9825	14.35	2
0	9826	14.35	1
0	9836	14.4	1
0	9837	14.4	2
0	9838	14.4	1
0	9839	14.4	1
0	9840	14.4	2
0	9841	14.4	1
0	9857	14.45	1
0	9858	14.45	2
0	9859	14.45	1
0	9869	14.5	1
0	9870	14.5	2
0	9871	14.5	1
0	9872	14.5	1
0	9873	14.5	2
0	9874	14.5	1
0	9890	14.55	1
0	9891	14.55	2
0	9892	14.55	1
0	9902	14.6	1
0	9903	14.6	2
0	9904	14.6	1
0	9905	14.6	1
0	9906	14.6	2
0	9907	14.6	1
0	9937	14.65	1
0	9938	14.65	2
0	9939	14.65	1
0	9949	14.7	1
0	9950	14.7	2
0	9951	14.7	1
0	9952	14.7	1
0	9953	14.7	2
0	9954	14.7	1
0	9970	14.75	1
0	9971	14.75	2
0	9972	14.75	1
0	9996	14.8	1
0	9997	14.8	2
0	9998	14.8	1
0	9999	14.8	1
0	10000	14.8	2
0	10001	14.8	1
0	10017	14.85	1
0	10018	14.85	2
0	10019	14.85	1
0	10029	14.9	1
0	10030	14.9	2
0	10031	14.9	1
0	10032	14.9	1
0	10033	14.9	2
0	10034	14.9	1
0	10050	14.95	1
0	10051	14.95	2
0	10052	14.95	1
0	10065	15	1
0	10066	15	2
0	10067	15	1
0	10068	15	1
0	10069	15	2
0	10070	15	1
0	10100	15.05	1
0	10101	15.05	2
0	10102	15.05	1
0	10112	15.1	1
0	10113	15.1	2
0	10114	15.1	1
0	10115	15.1	1
0	10116	15.1	2
0	10117	15.1	1
0	10133	15.15	1
0	10134	15.15	2
0	10135	15.15	1
0	10173	15.2	1
0	10174	15.2	2
0	10175	15.2	1
0	10176	15.2	1
0	10177	15.2	2
0	10178	15.2	1
0	10194	15.25	1
0	10195	15.25	2
0	10196	15.25	1
0	10206	15.3	1
0	10207	15.3	2
0	10208	15.3	1
0	10209	15.3	1
0	10210	15.3	2
0	10211	15.3	1
0	10237	15.35	1
0	10238	15.35	2
0	10239	15.35	1
0	10249	15.4	1
0	10250	15.4	2
0	10251	15.4	1
0	10252	15.4	1
0	10253	15.4	2
0	10254	15.4	1
0	10270	15.45	1
0	10271	15.45	2
0	10272	15.45	1
0	10282	15.5	1
0	10283	15.5	2
0	10284	15.5	1
0	10285	15.5	1
0	10286	15.5	2
0	10287	15.5	1
0	10303	15.55	1
0	10304	15.55	2
0	10305	15.55	1
0	10329	15.6	1
0	10330	15.6	2
0	10331	15.6	1
0	10332	15.6	1
0	10333	15.6	2
0	10334	15.6	1
0	10350	15.65	1
0	10351	15.65	2
0	10352	15.65	1
0	10362	15.7	1
0	10363	15.7	2
0	10364	15.7	1
0	10365	15.7	1
0	10366	15.7	2
0	10367	15.7	1
0	10411	15.75	1
0	10412	15.75	2
0	10413	15.75	1
0	10423	15.8	1
0	10424	15.8	2
0	10425	15.8	1
0	10426	15.8	1
0	10427	15.8	2
0	10428	15.8	1
0	10444	15.85	1
0	10445	15.85	2
0	10446	15.85	1
0	10470	15.9	1
0	10471	15.9	2
0	10472	15.9	1
0	10473	15.9	1
0	10474	15.9	2
0	10475	15.9	1
0	10491	15.95	1
0	10492	15.95	2
0	10493	15.95	1
0	10503	16	1
0	10504	16	2
0	10505	16	1
0	10506	16	1
0	10507	16	2
0	10508	16	1
0	10524	16.05	1
0	10525	16.05	2
0	10526	16.05	1
0	10550	16.1	1
0	10551	16.1	2
0	10552	16.1	1
0	10553	16.1	1
0	10554	16.1	2
0	10555	16.1	1
0	10571	16.15	1
0	10572	16.15	2
0	10573	16.15	1
0	10583	16.2	1
0	10584	16.2	2
0	10585	16.2	1
0	10586	16.2	1
0	10587	16.2	2
0	10588	16.2	1
0	10604	16.25	1
0	10605	16.25	2
0	10606	16.25	1
0	10644	16.3	1
0	10645	16.3	2
0	10646	16.3	1
0	10647	16.3	1
0	10648	16.3	2
0	10649	16.3	1
0	10665	16.35	1
0	10666	16.35	2
0	10667	16.35	1
0	10677	16.4	1
0	10678	16.4	2
0	10679	16.4	1
0	10680	16.4	1
0	10681	16.4	2
0	10682	16.4	1
0	10712	16.45	1
0	10713	16.45	2
0	10714	16.45	1
0	10724	16.5	1
0	10725	16.5	2
0	10726	16.5	1
0	10727	16.5	1
0	10728	16.5	2
0	10729	16.5	1
0	10745	16.55	1
0	10746	16.55	2
0	10747	16.55	1
0	10757	16.6	1
0	10758	16.6	2
0	10759	16.6	1
0	10760	16.6	1
0	10761	16.6	2
0	10762	16.6	1
0	10792	16.65	1
0	10793	16.65	2
0	10794	16.65	1
0	10804	16.7	1
0	10805	16.7	2
0	10806	16.7	1
0	10807	16.7	1
0	10808	16.7	2
0	10809	16.7	1
0	10825	16.75	1
0	10826	16.75	2
0	10827	16.75	1
0	10837	16.8	1
0	10838	16.8	2
0	10839	16.8	1
0	10840	16.8	1
0	10841	16.8	2
0	10842	16.8	1
0	10886	16.85	1
0	10887	16.85	2
0	10888	16.85	1
0	10898	16.9	1
0	10899	16.9	2
0	10900	16.9	1
0	10901	16.9	1
0	10902	16.9	2
0	10903	16.9	1
0	10919	16.95	1
0	10920	16.95	2
0	10921	16.95	1
0	10945	17	1
0	10946	17	2
0	10947	17	1
0	10948	17	1
0	10949	17	2
0	10950	17	1
0	10966	17.05	1
0	10967	17.05	2
0	10968	17.05	1
0	10978	17.1	1
0	10979	17.1	2
0	10980	17.1	1
0	10981	17.1	1
0	10982	17.1	2
0	10983	17.1	1
0	10999	17.15	1
0	11000	17.15	2
0	11001	17.15	1
0	11025	17.2	1
0	11026	17.2	2
0	11027	17.2	1
0	11028	17.2	1
0	11029	17.2	2
0	11030	17.2	1
0	11046	17.25	1
0	11047	17.25	2
0	11048	17.25	1
0	11058	17.3	1
0	11059	17.3	2
0	11060	17.3	1
0	11061	17.3	1
0	11062	17.3	2
0	11063	17.3	1
0	11079	17.35	1
0	11080	17.35	2
0	11081	17.35	1
0	11119	17.4	1
0	11120	17.4	2
0	11121	17.4	1
0	11122	17.4	1
0	11123	17.4	2
0	11124	17.4	1
0	11140	17.45	1
0	11141	17.45	2
0	11142	17.45	1
0	11152	17.5	1
0	11153	17.5	2
0	11154	17.5	1
0	11155	17.5	1
0	11156	17.5	2
0	11157	17.5	1
0	11183	17.55	1
0	11184	17.55	2
0	11185	17.55	1
0	11195	17.6	1
0	11196	17.6	2
0	11197	17.6	1
0	11198	17.6	1
0	11199	17.6	2
0	11200	17.6	1
0	11216	17.65	1
0	11217	17.65	2
0	11218	17.65	1
0	11228	17.7	1
0	11229	17.7	2
0	11230	17.7	1
0	11231	17.7	1
0	11232	17.7	2
0	11233	17.7	1
0	11263	17.75	1
0	11264	17.75	2
0	11265	17.75	1
0	11275	17.8	1
0	11276	17.8	2
0	11277	17.8	1
0	11278	17.8	1
0	11279	17.8	2
0	11280	17.8	1
0	11296	17.85	1
0	11297	17.85	2
0	11298	17.85	1
0	11308	17.9	1
0	11309	17.9	2
0	11310	17.9	1
0	11311	17.9	1
0	11312	17.9	2
0	11313	17.9	1
0	11353	17.95	1
0	11354	17.95	2
0	11355	17.95	1
0	11365	18	1
0	11366	18	2
0	11367	18	1
0	11368	18	1
0	11369	18	2
0	11370	18	1
0	11386	18.05	1
0	11387	18.05	2
0	11388	18.05	1
0	11408	18.1	1
0	11409	18.1	2
0	11410	18.1	1
0	11411	18.1	1
0	11412	18.1	2
0	11413	18.1	1
0	11429	18.15	1
0	11430	18.15	2
0	11431	18.15	1
0	11441	18.2	1
0	11442	18.2	2
0	11443	18.2	1
0	11444	18.2	1
0	11445	18.2	2
0	11446	18.2	1
0	11462	18.25	1
0	11463	18.25	2
0	11464	18.25	1
0	11488	18.3	1
0	11489	18.3	2
0	11490	18.3	1
0	11491	18.3	1
0	11492	18.3	2
0	11493	18.3	1
0	11509	18.35	1
0	11510	18.35	2
0	11511	18.35	1
0	11521	18.4	1
0	11522	18.4	2
0	11523	18.4	1
0	11524	18.4	1
0	11525	18.4	2
0	11526	18.4	1
0	11542	18.45	1
0	11543	18.45	2
0	11544	18.45	1
0	11582	18.5	1
0	11583	18.5	2
0	11584	18.5	1
0	11585	18.5	1
0	11586	18.5	2
0	11587	18.5	1
0	11603	18.55	1
0	11604	18.55	2
0	11605	18.55	1
0	11615	18.6	1
0	11616	18.6	2
0	11617	18.6	1
0	11618	18.6	1
0	11619	18.6	2
0	11620	18.6	1
0	11650	18.65	1
0	11651	18.65	2
0	11652	18.65	1
0	11662	18.7	1
0	11663	18.7	2
0	11664	18.7	1
0	11665	18.7	1
0	11666	18.7	2
0	11667	18.7	1
0	11683	18.75	1
0	11684	18.75	2
0	11685	18.75	1
0	11695	18.8	1
0	11696	18.8	2
0	11697	18.8	1
0	11698	18.8	1
0	11699	18.8	2
0	11700	18.8	1
0	11730	18.85	1
0	11731	18.85	2
0	11732	18.85	1
0	11742	18.9	1
0	11743	18.9	2
0	11744	18.9	1
0	11745	18.9	1
0	11746	18.9	2
0	11747	18.9	1
0	11763	18.95	1
0	11764	18.95	2
0	11765	18.95	1
0	11775	19	1
0	11776	19	2
0	11777	19	1
0	11778	19	1
0	11779	19	2
0	11780	19	1
0	11824	19.05	1
0	11825	19.05	2
0	11826	19.05	1
0	11836	19.1	1
0	11837	19.1	2
0	11838	19.1	1
0	11839	19.1	1
0	11840	19.1	2
0	11841	19.1	1
0	11857	19.15	1
0	11858	19.15	2
0	11859	19.15	1
0	11883	19.2	1
0	11884	19.2	2
0	11885	19.2	1
0	11886	19.2	1
0	11887	19.2	2
0	11888	19.2	1
0	11904	19.25	1
0	11905	19.25	2
0	11906	19.25	1
0	11916	19.3	1
0	11917	19.3	2
0	11918	19.3	1
0	11919	19.3	1
0	11920	19.3	2
0	11921	19.3	1
0	11937	19.35	1
0	11938	19.35	2
0	11939	19.35	1
0	11963	19.4	1
0	11964	19.4	2
0	11965	19.4	1
0	11966	19.4	1
0	11967	19.4	2
0	11968	19.4	1
0	11984	19.45	1
0	11985	19.45	2
0	11986	19.45	1
0	11996	19.5	1
0	11997	19.5	2
0	11998	19.5	1
0	11999	19.5	1
0	12000	19.5	2
0	12001	19.5	1
0	12017	19.55	1
0	12018	19.55	2
0	12019	19.55	1
0	12057	19.6	1
0	12058	19.6	2
0	12059	19.6	1
0	12060	19.6	1
0	12061	19.6	2
0	12062	19.6	1
0	12078	19.65	1
0	12079	19.65	2
0	12080	19.65	1
0	12090	19.7	1
0	12091	19.7	2
0	12092	19.7	1
0	12093	19.7	1
0	12094	19.7	2
0	12095	19.7	1
0	12125	19.75	1
0	12126	19.75	2
0	12127	19.75	1
0	12137	19.8	1
0	12138	19.8	2
0	12139	19.8	1
0	12140	19.8	1
0	12141	19.8	2
0	12142	19.8	1
0	12158	19.85	1
0	12159	19.85	2
0	12160	19.85	1
0	12170	19.9	1
0	12171	19.9	2
0	12172	19.9	1
0	12173	19.9	1
0	12174	19.9	2
0	12175	19.9	1
0	12205	19.95	1
0	12206	19.95	2
0	12207	19.95	1
0	12220	20	1
0	12221	20	2
0	12222	20	1
0	12223	20	1
0	12224	20	2
0	12225	20	1
0	12241	20.05	1
0	12242	20.05	2
0	12243	20.05	1
0	12253	20.1	1
0	12254	20.1	2
0	12255	20.1	1
0	12256	20.1	1
0	12257	20.1	2
0	12258	20.1	1
0	12302	20.15	1
0	12303	20.15	2
0	12304	20.15	1
0	12314	20.2	1
0	12315	20.2	2
0	12316	20.2	1
0	12317	20.2	1
0	12318	20.2	2
0	12319	20.2	1
0	12335	20.25	1
0	12336	20.25	2
0	12337	20.25	1
0	12361	20.3	1
0	12362	20.3	2
0	12363	20.3	1
0	12364	20.3	1
0	12365	20.3	2
0	12366	20.3	1
0	12382	20.35	1
0	12383	20.35	2
0	12384	20.35	1
0	12394	20.4	1
0	12395	20.4	2
0	12396	20.4	1
0	12397	20.4	1
0	12398	20.4	2
0	12399	20.4	1
0	12415	20.45	1
0	12416	20.45	2
0	12417	20.45	1
0	12441	20.5	1
0	12442	20.5	2
0	12443	20.5	1
0	12444	20.5	1
0	12445	20.5	2
0	12446	20.5	1
0	12462	20.55	1
0	12463	20.55	2
0	12464	20.55	1
0	12474	20.6	1
0	12475	20.6	2
0	12476	20.6	1
0	12477	20.6	1
0	12478	20.6	2
0	12479	20.6	1
0	12495	20.65	1
0	12496	20.65	2
0	12497	20.65	1
0	12535	20.7	1
0	12536	20.7	2
0	12537	20.7	1
0	12538	20.7	1
0	12539	20.7	2
0	12540	20.7	1
0	12556	20.75	1
0	12557	20.75	2
0	12558	20.75	1
0	12568	20.8	1
0	12569	20.8	2
0	12570	20.8	1
0	12571	20.8	1
0	12572	20.8	2
0	12573	20.8	1
0	12603	20.85	1
0	12604	20.85	2
0	12605	20.85	1
0	12615	20.9	1
0	12616	20.9	2
0	12617	20.9	1
0	12618	20.9	1
0	12619	20.9	2
0	12620	20.9	1
0	12636	20.95	1
0	12637	20.95	2
0	12638	20.95	1
0	12648	21	1
0	12649	21	2
0	12650	21	1
0	12651	21	1
0	12652	21	2
0	12653	21	1
0	12683	21.05	1
0	12684	21.05	2
0	12685	21.05	1
0	12695	21.1	1
0	12696	21.1	2
0	12697	21.1	1
0	12698	21.1	1
0	12699	21.1	2
0	12700	21.1	1
0	12716	21.15	1
0	12717	21.15	2
0	12718	21.15	1
0	12728	21.2	1
0	12729	21.2	2
0	12730	21.2	1
0	12731	21.2	1
0	12732	21.2	2
0	12733	21.2	1
0	12777	21.25	1
0	12778	21.25	2
0	12779	21.25	1
0	12789	21.3	1
0	12790	21.3	2
0	12791	21.3	1
0	12792	21.3	1
0	12793	21.3	2
0	12794	21.3	1
0	12810	21.35	1
0	12811	21.35	2
0	12812	21.35	1
0	12832	21.4	1
0	12833	21.4	2
0	12834	21.4	1
0	12835	21.4	1
0	12836	21.4	2
0	12837	21.4	1
0	12853	21.45	1
0	12854	21.45	2
0	12855	21.45	1
0	12865	21.5	1
0	12866	21.5	2
0	12867	21.5	1
0	12868	21.5	1
0	12869	21.5	2
0	12870	21.5	1
0	12886	21.55	1
0	12887	21.55	2
0	12888	21.55	1
0	12912	21.6	1
0	12913	21.6	2
0	12914	21.6	1
0	12915	21.6	1
0	12916	21.6	2
0	12917	21.6	1
0	12933	21.65	1
0	12934	21.65	2
0	12935	21.65	1
0	12945	21.7	1
0	12946	21.7	2
0	12947	21.7	1
0	12948	21.7	1
0	12949	21.7	2
0	12950	21.7	1
0	12966	21.75	1
0	12967	21.75	2
0	12968	21.75	1
0	13002	21.8	1
0	13003	21.8	2
0	13004	21.8	1
0	13005	21.8	1
0	13006	21.8	2
0	13007	21.8	1
0	13023	21.85	1
0	13024	21.85	2
0	13025	21.85	1
0	13035	21.9	1
0	13036	21.9	2
0	13037	21.9	1
0	13038	21.9	1
0	13039	21.9	2
0	13040	21.9	1
0	13070	21.95	1
0	13071	21.95	2
0	13072	21.95	1
0	13082	22	1
0	13083	22	2
0	13084	22	1
0	13085	22	1
0	13086	22	2
0	13087	22	1
0	13103	22.05	1
0	13104	22.05	2
0	13105	22.05	1
0	13115	22.1	1
0	13116	22.1	2
0	13117	22.1	1
0	13118	22.1	1
0	13119	22.1	2
0	13120	22.1	1
0	13150	22.15	1
0	13151	22.15	2
0	13152	22.15	1
0	13162	22.2	1
0	13163	22.2	2
0	13164	22.2	1
0	13165	22.2	1
0	13166	22.2	2
0	13167	22.2	1
0	13183	22.25	1
0	13184	22.25	2
0	13185	22.25	1
0	13195	22.3	1
0	13196	22.3	2
0	13197	22.3	1
0	13198	22.3	1
0	13199	22.3	2
0	13200	22.3	1
0	13240	22.35	1
0	13241	22.35	2
0	13242	22.35	1
0	13252	22.4	1
0	13253	22.4	2
0	13254	22.4	1
0	13255	22.4	1
0	13256	22.4	2
0	13257	22.4	1
0	13273	22.45	1
0	13274	22.45	2
0	13275	22.45	1
0	13288	22.5	1
0	13289	22.5	2
0	13290	22.5	1
0	13291	22.5	1
0	13292	22.5	2
0	13293	22.5	1
0	13309	22.55	1
0	13310	22.55	2
0	13311	22.55	1
0	13321	22.6	1
0	13322	22.6	2
0	13323	22.6	1
0	13324	22.6	1
0	13325	22.6	2
0	13326	22.6	1
0	13342	22.65	1
0	13343	22.65	2
0	13344	22.65	1
0	13364	22.7	1
0	13365	22.7	2
0	13366	22.7	1
0	13367	22.7	1
0	13368	22.7	2
0	13369	22.7	1
0	13385	22.75	1
0	13386	22.75	2
0	13387	22.75	1
0	13397	22.8	1
0	13398	22.8	2
0	13399	22.8	1
0	13400	22.8	1
0	13401	22.8	2
0	13402	22.8	1
0	13418	22.85	1
0	13419	22.85	2
0	13420	22.85	1
0	13444	22.9	1
0	13445	22.9	2
0	13446	22.9	1
0	13447	22.9	1
0	13448	22.9	2
0	13449	22.9	1
0	13465	22.95	1
0	13466	22.95	2
0	13467	22.95	1
0	13477	23	1
0	13478	23	2
0	13479	23	1
0	13480	23	1
0	13481	23	2
0	13482	23	1
0	13498	23.05	1
0	13499	23.05	2
0	13500	23.05	1
0	13510	23.1	1
0	13511	23.1	2
0	13512	23.1	1
0	13513	23.1	1
0	13514	23.1	2
0	13515	23.1	1
0	13531	23.15	1
0	13532	23.15	2
0	13533	23.15	1
0	13543	23.2	1
0	13544	23.2	2
0	13545	23.2	1
0	13546	23.2	1
0	13547	23.2	2
0	13548	23.2	1
0	13578	23.25	1
0	13579	23.25	2
0	13580	23.25	1
0	13590	23.3	1
0	13591	23.3	2
0	13592	23.3	1
0	13593	23.3	1
0	13594	23.3	2
0	13595	23.3	1
0	13611	23.35	1
0	13612	23.35	2
0	13613	23.35	1
0	13623	23.4	1
0	13624	23.4	2
0	13625	23.4	1
0	13626	23.4	1
0	13627	23.4	2
0	13628	23.4	1
0	13658	23.45	1
0	13659	23.45	2
0	13660	23.45	1
0	13670	23.5	1
0	13671	23.5	2
0	13672	23.5	1
0	13673	23.5	1
0	13674	23.5	2
0	13675	23.5	1
0	13691	23.55	1
0	13692	23.55	2
0	13693	23.55	1
0	13703	23.6	1
0	13704	23.6	2
0	13705	23.6	1
0	13706	23.6	1
0	13707	23.6	2
0	13708	23.6	1
0	13724	23.65	1
0	13725	23.65	2
0	13726	23.65	1
0	13736	23.7	1
0	13737	23.7	2
0	13738	23.7	1
0	13739	23.7	1
0	13740	23.7	2
0	13741	23.7	1
0	13757	23.75	1
0	13758	23.75	2
0	13759	23.75	1
0	13783	23.8	1
0	13784	23.8	2
0	13785	23.8	1
0	13786	23.8	1
0	13787	23.8	2
0	13788	23.8	1
0	13804	23.85	1
0	13805	23.85	2
0	13806	23.85	1
0	13816	23.9	1
0	13817	23.9	2
0	13818	23.9	1
0	13819	23.9	1
0	13820	23.9	2
0	13821	23.9	1
0	13851	23.95	1
0	13852	23.95	2
0	13853	23.95	1
0	13877	24	1
0	13878	24	2
0	13879	24	1
0	13880	24	1
0	13881	24	2
0	13882	24	1
0	13898	24.05	1
0	13899	24.05	2
0	13900	24.05	1
0	13924	24.1	1
0	13925	24.1	2
0	13926	24.1	1
0	13927	24.1	1
0	13928	24.1	2
0	13929	24.1	1
0	13945	24.15	1
0	13946	24.15	2
0	13947	24.15	1
0	13957	24.2	1
0	13958	24.2	2
0	13959	24.2	1
0	13960	24.2	1
0	13961	24.2	2
0	13962	24.2	1
0	13978	24.25	1
0	13979	24.25	2
0	13980	24.25	1
0	13990	24.3	1
0	13991	24.3	2
0	13992	24.3	1
0	13993	24.3	1
0	13994	24.3	2
0	13995	24.3	1
0	14025	24.35	1
0	14026	24.35	2
0	14027	24.35	1
0	14037	24.4	1
0	14038	24.4	2
0	14039	24.4	1
0	14040	24.4	1
0	14041	24.4	2
0	14042	24.4	1
0	14058	24.45	1
0	14059	24.45	2
0	14060	24.45	1
0	14084	24.5	1
0	14085	24.5	2
0	14086	24.5	1
0	14087	24.5	1
0	14088	24.5	2
0	14089	24.5	1
0	14119	24.55	1
0	14120	24.55	2
0	14121	24.55	1
0	14131	24.6	1
0	14132	24.6	2
0	14133	24.6	1
0	14134	24.6	1
0	14135	24.6	2
0	14136	24.6	1
0	14166	24.65	1
0	14167	24.65	2
0	14168	24.65	1
0	14178	24.7	1
0	14179	24.7	2
0	14180	24.7	1
0	14181	24.7	1
0	14182	24.7	2
0	14183	24.7	1
0	14199	24.75	1
0	14200	24.75	2
0	14201	24.75	1
0	14211	24.8	1
0	14212	24.8	2
0	14213	24.8	1
0	14214	24.8	1
0	14215	24.8	2
0	14216	24.8	1
0	14232	24.85	1
0	14233	24.85	2
0	14234	24.85	1
0	14258	24.9	1
0	14259	24.9	2
0	14260	24.9	1
0	14261	24.9	1
0	14262	24.9	2
0	14263	24.9	1
0	14279	24.95	1
0	14280	24.95	2
0	14281	24.95	1
0	14294	25	1
0	14295	25	2
0	14296	25	1
0	14297	25	1
0	14298	25	2
0	14299	25	1
0	14329	25.05	1
0	14330	25.05	2
0	14331	25.05	1
0	14355	25.1	1
0	14356	25.1	2
0	14357	25.1	1
0	14358	25.1	1
0	14359	25.1	2
0	14360	25.1	1
0	14376	25.15	1
0	14377	25.15	2
0	14378	25.15	1
0	14402	25.2	1
0	14403	25.2	2
0	14404	25.2	1
0	14405	25.2	1
0	14406	25.2	2
0	14407	25.2	1
0	14423	25.25	1
0	14424	25.25	2
0	14425	25.25	1
0	14435	25.3	1
0	14436	25.3	2
0	14437	25.3	1
0	14438	25.3	1
0	14439	25.3	2
0	14440	25.3	1
0	14456	25.35	1
0	14457	25.35	2
0	14458	25.35	1
0	14468	25.4	1
0	14469	25.4	2
0	14470	25.4	1
0	14471	25.4	1
0	14472	25.4	2
0	14473	25.4	1
0	14503	25.45	1
0	14504	25.45	2
0	14505	25.45	1
0	14515	25.5	1
0	14516	25.5	2
0	14517	25.5	1
0	14518	25.5	1
0	14519	25.5	2
0	14520	25.5	1
0	14536	25.55	1
0	14537	25.55	2
0	14538	25.55	1
0	14562	25.6	1
0	14563	25.6	2
0	14564	25.6	1
0	14565	25.6	1
0	14566	25.6	2
0	14567	25.6	1
0	14597	25.65	1
0	14598	25.65	2
0	14599	25.65	1
0	14609	25.7	1
0	14610	25.7	2
0	14611	25.7	1
0	14612	25.7	1
0	14613	25.7	2
0	14614	25.7	1
0	14644	25.75	1
0	14645	25.75	2
0	14646	25.75	1
0	14656	25.8	1
0	14657	25.8	2
0	14658	25.8	1
0	14659	25.8	1
0	14660	25.8	2
0	14661	25.8	1
0	14677	25.85	1
0	14678	25.85	2
0	14679	25.85	1
0	14689	25.9	1
0	14690	25.9	2
0	14691	25.9	1
0	14692	25.9	1
0	14693	25.9	2
0	14694	25.9	1
0	14710	25.95	1
0	14711	25.95	2
0	14712	25.95	1
0	14736	26	1
0	14737	26	2
0	14738	26	1
0	14739	26	1
0	14740	26	2
0	14741	26	1
0	14757	26.05	1
0	14758	26.05	2
0	14759	26.05	1
0	14769	26.1	1
0	14770	26.1	2
0	14771	26.1	1
0	14772	26.1	1
0	14773	26.1	2
0	14774	26.1	1
0	14804	26.15	1
0	14805	26.15	2
0	14806	26.15	1
0	14830	26.2	1
0	14831	26.2	2
0	14832	26.2	1
0	14833	26.2	1
0	14834	26.2	2
0	14835	26.2	1
0	14851	26.25	1
0	14852	26.25	2
0	14853	26.25	1
0	14877	26.3	1
0	14878	26.3	2
0	14879	26.3	1
0	14880	26.3	1
0	14881	26.3	2
0	14882	26.3	1
0	14898	26.35	1
0	14899	26.35	2
0	14900	26.35	1
0	14910	26.4	1
0	14911	26.4	2
0	14912	26.4	1
0	14913	26.4	1
0	14914	26.4	2
0	14915	26.4	1
0	14931	26.45	1
0	14932	26.45	2
0	14933	26.45	1
0	14943	26.5	1
0	14944	26.5	2
0	14945	26.5	1
0	14946	26.5	1
0	14947	26.5	2
0	14948	26.5	1
0	14978	26.55	1
0	14979	26.55	2
0	14980	26.55	1
0	14990	26.6	1
0	14991	26.6	2
0	14992	26.6	1
0	14993	26.6	1
0	14994	26.6	2
0	14995	26.6	1
0	15011	26.65	1
0	15012	26.65	2
0	15013	26.65	1
0	15037	26.7	1
0	15038	26.7	2
0	15039	26.7	1
0	15040	26.7	1
0	15041	26.7	2
0	15042	26.7	1
0	15068	26.75	1
0	15069	26.75	2
0	15070	26.75	1
0	15080	26.8	1
0	15081	26.8	2
0	15082	26.8	1
0	15083	26.8	1
0	15084	26.8	2
0	15085	26.8	1
0	15115	26.85	1
0	15116	26.85	2
0	15117	26.85	1
0	15127	26.9	1
0	15128	26.9	2
0	15129	26.9	1
0	15130	26.9	1
0	15131	26.9	2
0	15132	26.9	1
0	15148	26.95	1
0	15149	26.95	2
0	15150	26.95	1
0	15160	27	1
0	15161	27	2
0	15162	27	1
0	15163	27	1
0	15164	27	2
0	15165	27	1
0	15181	27.05	1
0	15182	27.05	2
0	15183	27.05	1
0	15207	27.1	1
0	15208	27.1	2
0	15209	27.1	1
0	15210	27.1	1
0	15211	27.1	2
0	15212	27.1	1
0	15228	27.15	1
0	15229	27.15	2
0	15230	27.15	1
0	15240	27.2	1
0	15241	27.2	2
0	15242	27.2	1
0	15243	27.2	1
0	15244	27.2	2
0	15245	27.2	1
0	15275	27.25	1
0	15276	27.25	2
0	15277	27.25	1
0	15301	27.3	1
0	15302	27.3	2
0	15303	27.3	1
0	15304	27.3	1
0	15305	27.3	2
0	15306	27.3	1
0	15322	27.35	1
0	15323	27.35	2
0	15324	27.35	1
0	15344	27.4	1
0	15345	27.4	2
0	15346	27.4	1
0	15347	27.4	1
0	15348	27.4	2
0	15349	27.4	1
0	15365	27.45	1
0	15366	27.45	2
0	15367	27.45	1
0	15377	27.5	1
0	15378	27.5	2
0	15379	27.5	1
0	15380	27.5	1
0	15381	27.5	2
0	15382	27.5	1
0	15398	27.55	1
0	15399	27.55	2
0	15400	27.55	1
0	15410	27.6	1
0	15411	27.6	2
0	15412	27.6	1
0	15413	27.6	1
0	15414	27.6	2
0	15415	27.6	1
0	15445	27.65	1
0	15446	27.65	2
0	15447	27.65	1
0	15457	27.7	1
0	15458	27.7	2
0	15459	27.7	1
0	15460	27.7	1
0	15461	27.7	2
0	15462	27.7	1
0	15478	27.75	1
0	15479	27.75	2
0	15480	27.75	1
0	15504	27.8	1
0	15505	27.8	2
0	15506	27.8	1
0	15507	27.8	1
0	15508	27.8	2
0	15509	27.8	1
0	15539	27.85	1
0	15540	27.85	2
0	15541	27.85	1
0	15551	27.9	1
0	15552	27.9	2
0	15553	27.9	1
0	15554	27.9	1
0	15555	27.9	2
0	15556	27.9	1
0	15575	27.95	1
0	15576	27.95	2
0	15577	27.95	1
0	15587	28	1
0	15588	28	2
0	15589	28	1
0	15590	28	1
0	15591	28	2
0	15592	28	1
0	15608	28.05	1
0	15609	28.05	2
0	15610	28.05	1
0	15620	28.1	1
0	15621	28.1	2
0	15622	28.1	1
0	15623	28.1	1
0	15624	28.1	2
0	15625	28.1	1
0	15641	28.15	1
0	15642	28.15	2
0	15643	28.15	1
0	15667	28.2	1
0	15668	28.2	2
0	15669	28.2	1
0	15670	28.2	1
0	15671	28.2	2
0	15672	28.2	1
0	15688	28.25	1
0	15689	28.25	2
0	15690	28.25	1
0	15700	28.3	1
0	15701	28.3	2
0	15702	28.3	1
0	15703	28.3	1
0	15704	28.3	2
0	15705	28.3	1
0	15721	28.35	1
0	15722	28.35	2
0	15723	28.35	1
0	15747	28.4	1
0	15748	28.4	2
0	15749	28.4	1
0	15750	28.4	1
0	15751	28.4	2
0	15752	28.4	1
0	15768	28.45	1
0	15769	28.45	2
0	15770	28.45	1
0	15780	28.5	1
0	15781	28.5	2
0	15782	28.5	1
0	15783	28.5	1
0	15784	28.5	2
0	15785	28.5	1
0	15801	28.55	1
0	15802	28.55	2
0	15803	28.55	1
0	15813	28.6	1
0	15814	28.6	2
0	15815	28.6	1
0	15816	28.6	1
0	15817	28.6	2
0	15818	28.6	1
0	15834	28.65	1
0	15835	28.65	2
0	15836	28.65	1
0	15846	28.7	1
0	15847	28.7	2
0	15848	28.7	1
0	15849	28.7	1
0	15850	28.7	2
0	15851	28.7	1
0	15870	28.75	1
0	15871	28.75	2
0	15872	28.75	1
0	15882	28.8	1
0	15883	28.8	2
0	15884	28.8	1
0	15885	28.8	1
0	15886	28.8	2
0	15887	28.8	1
0	15903	28.85	1
0	15904	28.85	2
0	15905	28.85	1
0	15915	28.9	1
0	15916	28.9	2
0	15917	28.9	1
0	15918	28.9	1
0	15919	28.9	2
0	15920	28.9	1
0	15936	28.95	1
0	15937	28.95	2
0	15938	28.95	1
0	15948	29	1
0	15949	29	2
0	15950	29	1
0	15951	29	1
0	15952	29	2
0	15953	29	1
0	15969	29.05	1
0	15970	29.05	2
0	15971	29.05	1
0	15981	29.1	1
0	15982	29.1	2
0	15983	29.1	1
0	15984	29.1	1
0	15985	29.1	2
0	15986	29.1	1
0	16002	29.15	1
0	16003	29.15	2
0	16004	29.15	1
0	16014	29.2	1
0	16015	29.2	2
0	16016	29.2	1
0	16017	29.2	1
0	16018	29.2	2
0	16019	29.2	1
0	16035	29.25	1
0	16036	29.25	2
0	16037	29.25	1
0	16047	29.3	1
0	16048	29.3	2
0	16049	29.3	1
0	16050	29.3	1
0	16051	29.3	2
0	16052	29.3	1
0	16068	29.35	1
0	16069	29.35	2
0	16070	29.35	1
0	16094	29.4	1
0	16095	29.4	2
0	16096	29.4	1
0	16097	29.4	1
0	16098	29.4	2
0	16099	29.4	1
0	16115	29.45	1
0	16116	29.45	2
0	16117	29.45	1
0	16127	29.5	1
0	16128	29.5	2
0	16129	29.5	1
0	16130	29.5	1
0	16131	29.5	2
0	16132	29.5	1
0	16162	29.55	1
0	16163	29.55	2
0	16164	29.55	1
0	16174	29.6	1
0	16175	29.6	2
0	16176	29.6	1
0	16177	29.6	1
0	16178	29.6	2
0	16179	29.6	1
0	16195	29.65	1
0	16196	29.65	2
0	16197	29.65	1
0	16207	29.7	1
0	16208	29.7	2
0	16209	29.7	1
0	16210	29.7	1
0	16211	29.7	2
0	16212	29.7	1
0	16228	29.75	1
0	16229	29.75	2
0	16230	29.75	1
0	16240	29.8	1
0	16241	29.8	2
0	16242	29.8	1
0	16243	29.8	1
0	16244	29.8	2
0	16245	29.8	1
0	16261	29.85	1
0	16262	29.85	2
0	16263	29.85	1
0	16273	29.9	1
0	16274	29.9	2
0	16275	29.9	1
0	16276	29.9	1
0	16277	29.9	2
0	16278	29.9	1
0	16308	29.95	1
0	16309	29.95	2
0	16310	29.95	1
0	16333	30	1
0	16334	30	2
0	16335	30	1
0	16336	30	1
0	16337	30	2
0	16338	30	1
0	16354	30.05	1
0	16355	30.05	2
0	16356	30.05	1
0	16376	30.1	1
0	16377	30.1	2
0	16378	30.1	1
0	16379	30.1	1
0	16380	30.1	2
0	16381	30.1	1
0	16411	30.15	1
0	16412	30.15	2
0	16413	30.15	1
0	16423	30.2	1
0	16424	30.2	2
0	16425	30.2	1
0	16426	30.2	1
0	16427	30.2	2
0	16428	30.2	1
0	16444	30.25	1
0	16445	30.25	2
0	16446	30.25	1
0	16456	30.3	1
0	16457	30.3	2
0	16458	30.3	1
0	16459	30.3	1
0	16460	30.3	2
0	16461	30.3	1
0	16477	30.35	1
0	16478	30.35	2
0	16479	30.35	1
0	16489	30.4	1
0	16490	30.4	2
0	16491	30.4	1
0	16492	30.4	1
0	16493	30.4	2
0	16494	30.4	1
0	16510	30.45	1
0	16511	30.45	2
0	16512	30.45	1
0	16536	30.5	1
0	16537	30.5	2
0	16538	30.5	1
0	16539	30.5	1
0	16540	30.5	2
0	16541	30.5	1
0	16571	30.55	1
0	16572	30.55	2
0	16573	30.55	1
0	16583	30.6	1
0	16584	30.6	2
0	16585	30.6	1
0	16586	30.6	1
0	16587	30.6	2
0	16588	30.6	1
0	16618	30.65	1
0	16619	30.65	2
0	16620	30.65	1
0	16640	30.7	1
0	16641	30.7	2
0	16642	30.7	1
0	16643	30.7	1
0	16644	30.7	2
0	16645	30.7	1
0	16661	30.75	1
0	16662	30.75	2
0	16663	30.75	1
0	16673	30.8	1
0	16674	30.8	2
0	16675	30.8	1
0	16676	30.8	1
0	16677	30.8	2
0	16678	30.8	1
0	16694	30.85	1
0	16695	30.85	2
0	16696	30.85	1
0	16706	30.9	1
0	16707	30.9	2
0	16708	30.9	1
0	16709	30.9	1
0	16710	30.9	2
0	16711	30.9	1
0	16727	30.95	1
0	16728	30.95	2
0	16729	30.95	1
0	16739	31	1
0	16740	31	2
0	16741	31	1
0	16742	31	1
0	16743	31	2
0	16744	31	1
0	16774	31.05	1
0	16775	31.05	2
0	16776	31.05	1
0	16800	31.1	1
0	16801	31.1	2
0	16802	31.1	1
0	16803	31.1	1
0	16804	31.1	2
0	16805	31.1	1
0	16821	31.15	1
0	16822	31.15	2
0	16823	31.15	1
0	16847	31.2	1
0	16848	31.2	2
0	16849	31.2	1
0	16850	31.2	1
0	16851	31.2	2
0	16852	31.2	1
0	16871	31.25	1
0	16872	31.25	2
0	16873	31.25	1
0	16883	31.3	1
0	16884	31.3	2
0	16885	31.3	1
0	16886	31.3	1
0	16887	31.3	2
0	16888	31.3	1
0	16904	31.35	1
0	16905	31.35	2
0	16906	31.35	1
0	16916	31.4	1
0	16917	31.4	2
0	16918	31.4	1
0	16919	31.4	1
0	16920	31.4	2
0	16921	31.4	1
0	16937	31.45	1
0	16938	31.45	2
0	16939	31.45	1
0	16949	31.5	1
0	16950	31.5	2
0	16951	31.5	1
0	16952	31.5	1
0	16953	31.5	2
0	16954	31.5	1
0	16970	31.55	1
0	16971	31.55	2
0	16972	31.55	1
0	16996	31.6	1
0	16997	31.6	2
0	16998	31.6	1
0	16999	31.6	1
0	17000	31.6	2
0	17001	31.6	1
0	17017	31.65	1
0	17018	31.65	2
0	17019	31.65	1
0	17029	31.7	1
0	17030	31.7	2
0	17031	31.7	1
0	17032	31.7	1
0	17033	31.7	2
0	17034	31.7	1
0	17064	31.75	1
0	17065	31.75	2
0	17066	31.75	1
0	17076	31.8	1
0	17077	31.8	2
0	17078	31.8	1
0	17079	31.8	1
0	17080	31.8	2
0	17081	31.8	1
0	17097	31.85	1
0	17098	31.85	2
0	17099	31.85	1
0	17109	31.9	1
0	17110	31.9	2
0	17111	31.9	1
0	17112	31.9	1
0	17113	31.9	2
0	17114	31.9	1
0	17130	31.95	1
0	17131	31.95	2
0	17132	31.95	1
0	17142	32	1
0	17143	32	2
0	17144	32	1
0	17145	32	1
0	17146	32	2
0	17147	32	1
0	17163	32.05	1
0	17164	32.05	2
0	17165	32.05	1
0	17175	32.1	1
0	17176	32.1	2
0	17177	32.1	1
0	17178	32.1	1
0	17179	32.1	2
0	17180	32.1	1
0	17210	32.15	1
0	17211	32.15	2
0	17212	32.15	1
0	17222	32.2	1
0	17223	32.2	2
0	17224	32.2	1
0	17225	32.2	1
0	17226	32.2	2
0	17227	32.2	1
0	17243	32.25	1
0	17244	32.25	2
0	17245	32.25	1
0	17269	32.3	1
0	17270	32.3	2
0	17271	32.3	1
0	17272	32.3	1
0	17273	32.3	2
0	17274	32.3	1
0	17290	32.35	1
0	17291	32.35	2
0	17292	32.35	1
0	17302	32.4	1
0	17303	32.4	2
0	17304	32.4	1
0	17305	32.4	1
0	17306	32.4	2
0	17307	32.4	1
0	17323	32.45	1
0	17324	32.45	2
0	17325	32.45	1
0	17335	32.5	1
0	17336	32.5	2
0	17337	32.5	1
0	17338	32.5	1
0	17339	32.5	2
0	17340	32.5	1
0	17356	32.55	1
0	17357	32.55	2
0	17358	32.55	1
0	17368	32.6	1
0	17369	32.6	2
0	17370	32.6	1
0	17371	32.6	1
0	17372	32.6	2
0	17373	32.6	1
0	17403	32.65	1
0	17404	32.65	2
0	17405	32.65	1
0	17429	32.7	1
0	17430	32.7	2
0	17431	32.7	1
0	17432	32.7	1
0	17433	32.7	2
0	17434	32.7	1
0	17450	32.75	1
0	17451	32.75	2
0	17452	32.75	1
0	17476	32.8	1
0	17477	32.8	2
0	17478	32.8	1
0	17479	32.8	1
0	17480	32.8	2
0	17481	32.8	1
0	17511	32.85	1
0	17512	32.85	2
0	17513	32.85	1
0	17523	32.9	1
0	17524	32.9	2
0	17525	32.9	1
0	17526	32.9	1
0	17527	32.9	2
0	17528	32.9	1
0	17544	32.95	1
0	17545	32.95	2
0	17546	32.95	1
0	17556	33	1
0	17557	33	2
0	17558	33	1
0	17559	33	1
0	17560	33	2
0	17561	33	1
0	17577	33.05	1
0	17578	33.05	2
0	17579	33.05	1
0	17589	33.1	1
0	17590	33.1	2
0	17591	33.1	1
0	17592	33.1	1
0	17593	33.1	2
0	17594	33.1	1
0	17610	33.15	1
0	17611	33.15	2
0	17612	33.15	1
0	17636	33.2	1
0	17637	33.2	2
0	17638	33.2	1
0	17639	33.2	1
0	17640	33.2	2
0	17641	33.2	1
0	17671	33.25	1
0	17672	33.25	2
0	17673	33.25	1
0	17683	33.3	1
0	17684	33.3	2
0	17685	33.3	1
0	17686	33.3	1
0	17687	33.3	2
0	17688	33.3	1
0	17718	33.35	1
0	17719	33.35	2
0	17720	33.35	1
0	17740	33.4	1
0	17741	33.4	2
0	17742	33.4	1
0	17743	33.4	1
0	17744	33.4	2
0	17745	33.4	1
0	17761	33.45	1
0	17762	33.45	2
0	17763	33.45	1
0	17773	33.5	1
0	17774	33.5	2
0	17775	33.5	1
0	17776	33.5	1
0	17777	33.5	2
0	17778	33.5	1
0	17794	33.55	1
0	17795	33.55	2
0	17796	33.55	1
0	17806	33.6	1
0	17807	33.6	2
0	17808	33.6	1
0	17809	33.6	1
0	17810	33.6	2
0	17811	33.6	1
0	17827	33.65	1
0	17828	33.65	2
0	17829	33.65	1
0	17839	33.7	1
0	17840	33.7	2
0	17841	33.7	1
0	17842	33.7	1
0	17843	33.7	2
0	17844	33.7	1
0	17874	33.75	1
0	17875	33.75	2
0	17876	33.75	1
0	17900	33.8	1
0	17901	33.8	2
0	17902	33.8	1
0	17903	33.8	1
0	17904	33.8	2
0	17905	33.8	1
0	17921	33.85	1
0	17922	33.85	2
0	17923	33.85	1
0	17947	33.9	1
0	17948	33.9	2
0	17949	33.9	1
0	17950	33.9	1
0	17951	33.9	2
0	17952	33.9	1
0	17982	33.95	1
0	17983	33.95	2
0	17984	33.95	1
0	17994	34	1
0	17995	34	2
0	17996	34	1
0	17997	34	1
0	17998	34	2
0	17999	34	1
0	18015	34.05	1
0	18016	34.05	2
0	18017	34.05	1
0	18027	34.1	1
0	18028	34.1	2
0	18029	34.1	1
0	18030	34.1	1
0	18031	34.1	2
0	18032	34.1	1
0	18048	34.15	1
0	18049	34.15	2
0	18050	34.15	1
0	18060	34.2	1
0	18061	34.2	2
0	18062	34.2	1
0	18063	34.2	1
0	18064	34.2	2
0	18065	34.2	1
0	18081	34.25	1
0	18082	34.25	2
0	18083	34.25	1
0	18107	34.3	1
0	18108	34.3	2
0	18109	34.3	1
0	18110	34.3	1
0	18111	34.3	2
0	18112	34.3	1
0	18142	34.35	1
0	18143	34.35	2
0	18144	34.35	1
0	18154	34.4	1
0	18155	34.4	2
0	18156	34.4	1
0	18157	34.4	1
0	18158	34.4	2
0	18159	34.4	1
0	18189	34.45	1
0	18190	34.45	2
0	18191	34.45	1
0	18215	34.5	1
0	18216	34.5	2
0	18217	34.5	1
0	18218	34.5	1
0	18219	34.5	2
0	18220	34.5	1
0	18236	34.55	1
0	18237	34.55	2
0	18238	34.55	1
0	18248	34.6	1
0	18249	34.6	2
0	18250	34.6	1
0	18251	34.6	1
0	18252	34.6	2
0	18253	34.6	1
0	18269	34.65	1
0	18270	34.65	2
0	18271	34.65	1
0	18281	34.7	1
0	18282	34.7	2
0	18283	34.7	1
0	18284	34.7	1
0	18285	34.7	2
0	18286	34.7	1
0	18302	34.75	1
0	18303	34.75	2
0	18304	34.75	1
0	18314	34.8	1
0	18315	34.8	2
0	18316	34.8	1
0	18317	34.8	1
0	18318	34.8	2
0	18319	34.8	1
0	18349	34.85	1
0	18350	34.85	2
0	18351	34.85	1
0	18375	34.9	1
0	18376	34.9	2
0	18377	34.9	1
0	18378	34.9	1
0	18379	34.9	2
0	18380	34.9	1
0	18396	34.95	1
0	18397	34.95	2
0	18398	34.95	1
0	18425	35	1
0	18426	35	2
0	18427	35	1
0	18428	35	1
0	18429	35	2
0	18430	35	1
0	18460	35.05	1
0	18461	35.05	2
0	18462	35.05	1
0	18472	35.1	1
0	18473	35.1	2
0	18474	35.1	1
0	18475	35.1	1
0	18476	35.1	2
0	18477	35.1	1
0	18493	35.15	1
0	18494	35.15	2
0	18495	35.15	1
0	18505	35.2	1
0	18506	35.2	2
0	18507	35.2	1
0	18508	35.2	1
0	18509	35.2	2
0	18510	35.2	1
0	18526	35.25	1
0	18527	35.25	2
0	18528	35.25	1
0	18538	35.3	1
0	18539	35.3	2
0	18540	35.3	1
0	18541	35.3	1
0	18542	35.3	2
0	18543	35.3	1
0	18559	35.35	1
0	18560	35.35	2
0	18561	35.35	1
0	18585	35.4	1
0	18586	35.4	2
0	18587	35.4	1
0	18588	35.4	1
0	18589	35.4	2
0	18590	35.4	1
0	18620	35.45	1
0	18621	35.45	2
0	18622	35.45	1
0	18632	35.5	1
0	18633	35.5	2
0	18634	35.5	1
0	18635	35.5	1
0	18636	35.5	2
0	18637	35.5	1
0	18667	35.55	1
0	18668	35.55	2
0	18669	35.55	1
0	18693	35.6	1
0	18694	35.6	2
0	18695	35.6	1
0	18696	35.6	1
0	18697	35.6	2
0	18698	35.6	1
0	18714	35.65	1
0	18715	35.65	2
0	18716	35.65	1
0	18726	35.7	1
0	18727	35.7	2
0	18728	35.7	1
0	18729	35.7	1
0	18730	35.7	2
0	18731	35.7	1
0	18747	35.75	1
0	18748	35.75	2
0	18749	35.75	1
0	18759	35.8	1
0	18760	35.8	2
0	18761	35.8	1
0	18762	35.8	1
0	18763	35.8	2
0	18764	35.8	1
0	18780	35.85	1
0	18781	35.85	2
0	18782	35.85	1
0	18792	35.9	1
0	18793	35.9	2
0	18794	35.9	1
0	18795	35.9	1
0	18796	35.9	2
0	18797	35.9	1
0	18827	35.95	1
0	18828	35.95	2
0	18829	35.95	1
0	18853	36	1
0	18854	36	2
0	18855	36	1
0	18856	36	1
0	18857	36	2
0	18858	36	1
0	18874	36.05	1
0	18875	36.05	2
0	18876	36.05	1
0	18900	36.1	1
0	18901	36.1	2
0	18902	36.1	1
0	18903	36.1	1
0	18904	36.1	2
0	18905	36.1	1
0	18935	36.15	1
0	18936	36.15	2
0	18937	36.15	1
0	18947	36.2	1
0	18948	36.2	2
0	18949	36.2	1
0	18950	36.2	1
0	18951	36.2	2
0	18952	36.2	1
0	18968	36.25	1
0	18969	36.25	2
0	18970	36.25	1
0	18980	36.3	1
0	18981	36.3	2
0	18982	36.3	1
0	18983	36.3	1
0	18984	36.3	2
0	18985	36.3	1
0	19001	36.35	1
0	19002	36.35	2
0	19003	36.35	1
0	19013	36.4	1
0	19014	36.4	2
0	19015	36.4	1
0	19016	36.4	1
0	19017	36.4	2
0	19018	36.4	1
0	19034	36.45	1
0	19035	36.45	2
0	19036	36.45	1
0	19060	36.5	1
0	19061	36.5	2
0	19062	36.5	1
0	19063	36.5	1
0	19064	36.5	2
0	19065	36.5	1
0	19095	36.55	1
0	19096	36.55	2
0	19097	36.55	1
0	19107	36.6	1
0	19108	36.6	2
0	19109	36.6	1
0	19110	36.6	1
0	19111	36.6	2
0	19112	36.6	1
0	19142	36.65	1
0	19143	36.65	2
0	19144	36.65	1
0	19168	36.7	1
0	19169	36.7	2
0	19170	36.7	1
0	19171	36.7	1
0	19172	36.7	2
0	19173	36.7	1
0	19189	36.75	1
0	19190	36.75	2
0	19191	36.75	1
0	19201	36.8	1
0	19202	36.8	2
0	19203	36.8	1
0	19204	36.8	1
0	19205	36.8	2
0	19206	36.8	1
0	19222	36.85	1
0	19223	36.85	2
0	19224	36.85	1
0	19234	36.9	1
0	19235	36.9	2
0	19236	36.9	1
0	19237	36.9	1
0	19238	36.9	2
0	19239	36.9	1
0	19255	36.95	1
0	19256	36.95	2
0	19257	36.95	1
0	19267	37	1
0	19268	37	2
0	19269	37	1
0	19270	37	1
0	19271	37	2
0	19272	37	1
0	19302	37.05	1
0	19303	37.05	2
0	19304	37.05	1
0	19328	37.1	1
0	19329	37.1	2
0	19330	37.1	1
0	19331	37.1	1
0	19332	37.1	2
0	19333	37.1	1
0	19349	37.15	1
0	19350	37.15	2
0	19351	37.15	1
0	19375	37.2	1
0	19376	37.2	2
0	19377	37.2	1
0	19378	37.2	1
0	19379	37.2	2
0	19380	37.2	1
0	19410	37.25	1
0	19411	37.25	2
0	19412	37.25	1
0	19422	37.3	1
0	19423	37.3	2
0	19424	37.3	1
0	19425	37.3	1
0	19426	37.3	2
0	19427	37.3	1
0	19443	37.35	1
0	19444	37.35	2
0	19445	37.35	1
0	19455	37.4	1
0	19456	37.4	2
0	19457	37.4	1
0	19458	37.4	1
0	19459	37.4	2
0	19460	37.4	1
0	19476	37.45	1
0	19477	37.45	2
0	19478	37.45	1
0	19488	37.5	1
0	19489	37.5	2
0	19490	37.5	1
0	19491	37.5	1
0	19492	37.5	2
0	19493	37.5	1
0	19509	37.55	1
0	19510	37.55	2
0	19511	37.55	1
0	19535	37.6	1
0	19536	37.6	2
0	19537	37.6	1
0	19538	37.6	1
0	19539	37.6	2
0	19540	37.6	1
0	19570	37.65	1
0	19571	37.65	2
0	19572	37.65	1
0	19582	37.7	1
0	19583	37.7	2
0	19584	37.7	1
0	19585	37.7	1
0	19586	37.7	2
0	19587	37.7	1
0	19617	37.75	1
0	19618	37.75	2
0	19619	37.75	1
0	19643	37.8	1
0	19644	37.8	2
0	19645	37.8	1
0	19646	37.8	1
0	19647	37.8	2
0	19648	37.8	1
0	19664	37.85	1
0	19665	37.85	2
0	19666	37.85	1
0	19676	37.9	1
0	19677	37.9	2
0	19678	37.9	1
0	19679	37.9	1
0	19680	37.9	2
0	19681	37.9	1
0	19697	37.95	1
0	19698	37.95	2
0	19699	37.95	1
0	19709	38	1
0	19710	38	2
0	19711	38	1
0	19712	38	1
0	19713	38	2
0	19714	38	1
0	19730	38.05	1
0	19731	38.05	2
0	19732	38.05	1
0	19742	38.1	1
0	19743	38.1	2
0	19744	38.1	1
0	19745	38.1	1
0	19746	38.1	2
0	19747	38.1	1
0	19777	38.15	1
0	19778	38.15	2
0	19779	38.15	1
0	19803	38.2	1
0	19804	38.2	2
0	19805	38.2	1
0	19806	38.2	1
0	19807	38.2	2
0	19808	38.2	1
0	19824	38.25	1
0	19825	38.25	2
0	19826	38.25	1
0	19850	38.3	1
0	19851	38.3	2
0	19852	38.3	1
0	19853	38.3	1
0	19854	38.3	2
0	19855	38.3	1
0	19885	38.35	1
0	19886	38.35	2
0	19887	38.35	1
0	19897	38.4	1
0	19898	38.4	2
0	19899	38.4	1
0	19900	38.4	1
0	19901	38.4	2
0	19902	38.4	1
0	19918	38.45	1
0	19919	38.45	2
0	19920	38.45	1
0	19930	38.5	1
0	19931	38.5	2
0	19932	38.5	1
0	19933	38.5	1
0	19934	38.5	2
0	19935	38.5	1
0	19951	38.55	1
0	19952	38.55	2
0	19953	38.55	1
0	19963	38.6	1
0	19964	38.6	2
0	19965	38.6	1
0	19966	38.6	1
0	19967	38.6	2
0	19968	38.6	1
0	19984	38.65	1
0	19985	38.65	2
0	19986	38.65	1
0	19999	38.7	1
0	20000	38.7	2
0	20001	38.7	1
0	20002	38.7	1
0	20003	38.7	2
0	20004	38.7	1
0	20034	38.75	1
0	20035	38.75	2
0	20036	38.75	1
0	20046	38.8	1
0	20047	38.8	2
0	20048	38.8	1
0	20049	38.8	1
0	20050	38.8	2
0	20051	38.8	1
0	20067	38.85	1
0	20068	38.85	2
0	20069	38.85	1
0	20089	38.9	1
0	20090	38.9	2
0	20091	38.9	1
0	20092	38.9	1
0	20093	38.9	2
0	20094	38.9	1
0	20110	38.95	1
0	20111	38.95	2
0	20112	38.95	1
0	20122	39	1
0	20123	39	2
0	20124	39	1
0	20125	39	1
0	20126	39	2
0	20127	39	1
0	20143	39.05	1
0	20144	39.05	2
0	20145	39.05	1
0	20155	39.1	1
0	20156	39.1	2
0	20157	39.1	1
0	20158	39.1	1
0	20159	39.1	2
0	20160	39.1	1
0	20176	39.15	1
0	20177	39.15	2
0	20178	39.15	1
0	20188	39.2	1
0	20189	39.2	2
0	20190	39.2	1
0	20191	39.2	1
0	20192	39.2	2
0	20193	39.2	1
0	20209	39.25	1
0	20210	39.25	2
0	20211	39.25	1
0	20235	39.3	1
0	20236	39.3	2
0	20237	39.3	1
0	20238	39.3	1
0	20239	39.3	2
0	20240	39.3	1
0	20256	39.35	1
0	20257	39.35	2
0	20258	39.35	1
0	20268	39.4	1
0	20269	39.4	2
0	20270	39.4	1
0	20271	39.4	1
0	20272	39.4	2
0	20273	39.4	1
0	20303	39.45	1
0	20304	39.45	2
0	20305	39.45	1
0	20315	39.5	1
0	20316	39.5	2
0	20317	39.5	1
0	20318	39.5	1
0	20319	39.5	2
0	20320	39.5	1
0	20336	39.55	1
0	20337	39.55	2
0	20338	39.55	1
0	20348	39.6	1
0	20349	39.6	2
0	20350	39.6	1
0	20351	39.6	1
0	20352	39.6	2
0	20353	39.6	1
0	20369	39.65	1
0	20370	39.65	2
0	20371	39.65	1
0	20381	39.7	1
0	20382	39.7	2
0	20383	39.7	1
0	20384	39.7	1
0	20385	39.7	2
0	20386	39.7	1
0	20402	39.75	1
0	20403	39.75	2
0	20404	39.75	1
0	20414	39.8	1
0	20415	39.8	2
0	20416	39.8	1
0	20417	39.8	1
0	20418	39.8	2
0	20419	39.8	1
0	20449	39.85	1
0	20450	39.85	2
0	20451	39.85	1
0	20475	39.9	1
0	20476	39.9	2
0	20477	39.9	1
0	20478	39.9	1
0	20479	39.9	2
0	20480	39.9	1
0	20496	39.95	1
0	20497	39.95	2
0	20498	39.95	1
0	20525	40	1
0	20526	40	2
0	20527	40	1
0	20528	40	1
0	20529	40	2
0	20530	40	1
0	20560	40.05	1
0	20561	40.05	2
0	20562	40.05	1
0	20572	40.1	1
0	20573	40.1	2
0	20574	40.1	1
0	20575	40.1	1
0	20576	40.1	2
0	20577	40.1	1
0	20593	40.15	1
0	20594	40.15	2
0	20595	40.15	1
0	20605	40.2	1
0	20606	40.2	2
0	20607	40.2	1
0	20608	40.2	1
0	20609	40.2	2
0	20610	40.2	1
0	20626	40.25	1
0	20627	40.25	2
0	20628	40.25	1
0	20638	40.3	1
0	20639	40.3	2
0	20640	40.3	1
0	20641	40.3	1
0	20642	40.3	2
0	20643	40.3	1
0	20659	40.35	1
0	20660	40.35	2
0	20661	40.35	1
0	20685	40.4	1
0	20686	40.4	2
0	20687	40.4	1
0	20688	40.4	1
0	20689	40.4	2
0	20690	40.4	1
0	20720	40.45	1
0	20721	40.45	2
0	20722	40.45	1
0	20732	40.5	1
0	20733	40.5	2
0	20734	40.5	1
0	20735	40.5	1
0	20736	40.5	2
0	20737	40.5	1
0	20767	40.55	1
0	20768	40.55	2
0	20769	40.55	1
0	20793	40.6	1
0	20794	40.6	2
0	20795	40.6	1
0	20796	40.6	1
0	20797	40.6	2
0	20798	40.6	1
0	20814	40.65	1
0	20815	40.65	2
0	20816	40.65	1
0	20826	40.7	1
0	20827	40.7	2
0	20828	40.7	1
0	20829	40.7	1
0	20830	40.7	2
0	20831	40.7	1
0	20847	40.75	1
0	20848	40.75	2
0	20849	40.75	1
0	20859	40.8	1
0	20860	40.8	2
0	20861	40.8	1
0	20862	40.8	1
0	20863	40.8	2
0	20864	40.8	1
0	20880	40.85	1
0	20881	40.85	2
0	20882	40.85	1
0	20892	40.9	1
0	20893	40.9	2
0	20894	40.9	1
0	20895	40.9	1
0	20896	40.9	2
0	20897	40.9	1
0	20927	40.95	1
0	20928	40.95	2
0	20929	40.95	1
0	20953	41	1
0	20954	41	2
0	20955	41	1
0	20956	41	1
0	20957	41	2
0	20958	41	1
0	20974	41.05	1
0	20975	41.05	2
0	20976	41.05	1
0	21000	41.1	1
0	21001	41.1	2
0	21002	41.1	1
0	21003	41.1	1
0	21004	41.1	2
0	21005	41.1	1
0	21035	41.15	1
0	21036	41.15	2
0	21037	41.15	1
0	21047	41.2	1
0	21048	41.2	2
0	21049	41.2	1
0	21050	41.2	1
0	21051	41.2	2
0	21052	41.2	1
0	21068	41.25	1
0	21069	41.25	2
0	21070	41.25	1
0	21080	41.3	1
0	21081	41.3	2
0	21082	41.3	1
0	21083	41.3	1
0	21084	41.3	2
0	21085	41.3	1
0	21101	41.35	1
0	21102	41.35	2
0	21103	41.35	1
0	21113	41.4	1
0	21114	41.4	2
0	21115	41.4	1
0	21116	41.4	1
0	21117	41.4	2
0	21118	41.4	1
0	21134	41.45	1
0	21135	41.45	2
0	21136	41.45	1
0	21160	41.5	1
0	21161	41.5	2
0	21162	41.5	1
0	21163	41.5	1
0	21164	41.5	2
0	21165	41.5	1
0	21195	41.55	1
0	21196	41.55	2
0	21197	41.55	1
0	21207	41.6	1
0	21208	41.6	2
0	21209	41.6	1
0	21210	41.6	1
0	21211	41.6	2
0	21212	41.6	1
0	21242	41.65	1
0	21243	41.65	2
0	21244	41.65	1
0	21268	41.7	1
0	21269	41.7	2
0	21270	41.7	1
0	21271	41.7	1
0	21272	41.7	2
0	21273	41.7	1
0	21289	41.75	1
0	21290	41.75	2
0	21291	41.75	1
0	21301	41.8	1
0	21302	41.8	2
0	21303	41.8	1
0	21304	41.8	1
0	21305	41.8	2
0	21306	41.8	1
0	21322	41.85	1
0	21323	41.85	2
0	21324	41.85	1
0	21334	41.9	1
0	21335	41.9	2
0	21336	41.9	1
0	21337	41.9	1
0	21338	41.9	2
0	21339	41.9	1
0	21355	41.95	1
0	21356	41.95	2
0	21357	41.95	1
0	21367	42	1
0	21368	42	2
0	21369	42	1
0	21370	42	1
0	21371	42	2
0	21372	42	1
0	21402	42.05	1
0	21403	42.05	2
0	21404	42.05	1
0	21428	42.1	1
0	21429	42.1	2
0	21430	42.1	1
0	21431	42.1	1
0	21432	42.1	2
0	21433	42.1	1
0	21449	42.15	1
0	21450	42.15	2
0	21451	42.15	1
0	21475	42.2	1
0	21476	42.2	2
0	21477	42.2	1
0	21478	42.2	1
0	21479	42.2	2
0	21480	42.2	1
0	21510	42.25	1
0	21511	42.25	2
0	21512	42.25	1
0	21522	42.3	1
0	21523	42.3	2
0	21524	42.3	1
0	21525	42.3	1
0	21526	42.3	2
0	21527	42.3	1
0	21543	42.35	1
0	21544	42.35	2
0	21545	42.35	1
0	21555	42.4	1
0	21556	42.4	2
0	21557	42.4	1
0	21558	42.4	1
0	21559	42.4	2
0	21560	42.4	1
0	21576	42.45	1
0	21577	42.45	2
0	21578	42.45	1
0	21588	42.5	1
0	21589	42.5	2
0	21590	42.5	1
0	21591	42.5	1
0	21592	42.5	2
0	21593	42.5	1
0	21609	42.55	1
0	21610	42.55	2
0	21611	42.55	1
0	21635	42.6	1
0	21636	42.6	2
0	21637	42.6	1
0	21638	42.6	1
0	21639	42.6	2
0	21640	42.6	1
0	21670	42.65	1
0	21671	42.65	2
0	21672	42.65	1
0	21682	42.7	1
0	21683	42.7	2
0	21684	42.7	1
0	21685	42.7	1
0	21686	42.7	2
0	21687	42.7	1
0	21717	42.75	1
0	21718	42.75	2
0	21719	42.75	1
0	21743	42.8	1
0	21744	42.8	2
0	21745	42.8	1
0	21746	42.8	1
0	21747	42.8	2
0	21748	42.8	1
0	21764	42.85	1
0	21765	42.85	2
0	21766	42.85	1
0	21776	42.9	1
0	21777	42.9	2
0	21778	42.9	1
0	21779	42.9	1
0	21780	42.9	2
0	21781	42.9	1
0	21797	42.95	1
0	21798	42.95	2
0	21799	42.95	1
0	21809	43	1
0	21810	43	2
0	21811	43	1
0	21812	43	1
0	21813	43	2
0	21814	43	1
0	21830	43.05	1
0	21831	43.05	2
0	21832	43.05	1
0	21842	43.1	1
0	21843	43.1	2
0	21844	43.1	1
0	21845	43.1	1
0	21846	43.1	2
0	21847	43.1	1
0	21877	43.15	1
0	21878	43.15	2
0	21879	43.15	1
0	21903	43.2	1
0	21904	43.2	2
0	21905	43.2	1
0	21906	43.2	1
0	21907	43.2	2
0	21908	43.2	1
0	21924	43.25	1
0	21925	43.25	2
0	21926	43.25	1
0	21950	43.3	1
0	21951	43.3	2
0	21952	43.3	1
0	21953	43.3	1
0	21954	43.3	2
0	21955	43.3	1
0	21985	43.35	1
0	21986	43.35	2
0	21987	43.35	1
0	21997	43.4	1
0	21998	43.4	2
0	21999	43.4	1
0	22000	43.4	1
0	22001	43.4	2
0	22002	43.4	1
0	22018	43.45	1
0	22019	43.45	2
0	22020	43.45	1
0	22030	43.5	1
0	22031	43.5	2
0	22032	43.5	1
0	22033	43.5	1
0	22034	43.5	2
0	22035	43.5	1
0	22051	43.55	1
0	22052	43.55	2
0	22053	43.55	1
0	22063	43.6	1
0	22064	43.6	2
0	22065	43.6	1
0	22066	43.6	1
0	22067	43.6	2
0	22068	43.6	1
0	22084	43.65	1
0	22085	43.65	2
0	22086	43.65	1
0	22110	43.7	1
0	22111	43.7	2
0	22112	43.7	1
0	22113	43.7	1
0	22114	43.7	2
0	22115	43.7	1
0	22145	43.75	1
0	22146	43.75	2
0	22147	43.75	1
0	22157	43.8	1
0	22158	43.8	2
0	22159	43.8	1
0	22160	43.8	1
0	22161	43.8	2
0	22162	43.8	1
0	22188	43.85	1
0	22189	43.85	2
0	22190	43.85	1
0	22203	43.9	1
0	22204	43.9	2
0	22205	43.9	1
0	22206	43.9	1
0	22207	43.9	2
0	22208	43.9	1
0	22224	43.95	1
0	22225	43.95	2
0	22226	43.95	1
0	22236	44	1
0	22237	44	2
0	22238	44	1
0	22239	44	1
0	22240	44	2
0	22241	44	1
0	22257	44.05	1
0	22258	44.05	2
0	22259	44.05	1
0	22269	44.1	1
0	22270	44.1	2
0	22271	44.1	1
0	22272	44.1	1
0	22273	44.1	2
0	22274	44.1	1
0	22290	44.15	1
0	22291	44.15	2
0	22292	44.15	1
0	22302	44.2	1
0	22303	44.2	2
0	22304	44.2	1
0	22305	44.2	1
0	22306	44.2	2
0	22307	44.2	1
0	22337	44.25	1
0	22338	44.25	2
0	22339	44.25	1
0	22349	44.3	1
0	22350	44.3	2
0	22351	44.3	1
0	22352	44.3	1
0	22353	44.3	2
0	22354	44.3	1
0	22370	44.35	1
0	22371	44.35	2
0	22372	44.35	1
0	22396	44.4	1
0	22397	44.4	2
0	22398	44.4	1
0	22399	44.4	1
0	22400	44.4	2
0	22401	44.4	1
0	22417	44.45	1
0	22418	44.45	2
0	22419	44.45	1
0	22429	44.5	1
0	22430	44.5	2
0	22431	44.5	1
0	22432	44.5	1
0	22433	44.5	2
0	22434	44.5	1
0	22450	44.55	1
0	22451	44.55	2
0	22452	44.55	1
0	22462	44.6	1
0	22463	44.6	2
0	22464	44.6	1
0	22465	44.6	1
0	22466	44.6	2
0	22467	44.6	1
0	22483	44.65	1
0	22484	44.65	2
0	22485	44.65	1
0	22495	44.7	1
0	22496	44.7	2
0	22497	44.7	1
0	22498	44.7	1
0	22499	44.7	2
0	22500	44.7	1
0	22516	44.75	1
0	22517	44.75	2
0	22518	44.75	1
0	22542	44.8	1
0	22543	44.8	2
0	22544	44.8	1
0	22545	44.8	1
0	22546	44.8	2
0	22547	44.8	1
0	22563	44.85	1
0	22564	44.85	2
0	22565	44.85	1
0	22575	44.9	1
0	22576	44.9	2
0	22577	44.9	1
0	22578	44.9	1
0	22579	44.9	2
0	22580	44.9	1
0	22610	44.95	1
0	22611	44.95	2
0	22612	44.95	1
0	22625	45	1
0	22626	45	2
0	22627	45	1
0	22628	45	1
0	22629	45	2
0	22630	45	1
0	22646	45.05	1
0	22647	45.05	2
0	22648	45.05	1
0	22658	45.1	1
0	22659	45.1	2
0	22660	45.1	1
0	22661	45.1	1
0	22662	45.1	2
0	22663	45.1	1
0	22679	45.15	1
0	22680	45.15	2
0	22681	45.15	1
0	22691	45.2	1
0	22692	45.2	2
0	22693	45.2	1
0	22694	45.2	1
0	22695	45.2	2
0	22696	45.2	1
0	22712	45.25	1
0	22713	45.25	2
0	22714	45.25	1
0	22724	45.3	1
0	22725	45.3	2
0	22726	45.3	1
0	22727	45.3	1
0	22728	45.3	2
0	22729	45.3	1
0	22773	45.35	1
0	22774	45.35	2
0	22775	45.35	1
0	22785	45.4	1
0	22786	45.4	2
0	22787	45.4	1
0	22788	45.4	1
0	22789	45.4	2
0	22790	45.4	1
0	22806	45.45	1
0	22807	45.45	2
0	22808	45.45	1
0	22835	45.5	1
0	22836	45.5	2
0	22837	45.5	1
0	22838	45.5	1
0	22839	45.5	2
0	22840	45.5	1
0	22856	45.55	1
0	22857	45.55	2
0	22858	45.55	1
0	22868	45.6	1
0	22869	45.6	2
0	22870	45.6	1
0	22871	45.6	1
0	22872	45.6	2
0	22873	45.6	1
0	22889	45.65	1
0	22890	45.65	2
0	22891	45.65	1
0	22901	45.7	1
0	22902	45.7	2
0	22903	45.7	1
0	22904	45.7	1
0	22905	45.7	2
0	22906	45.7	1
0	22922	45.75	1
0	22923	45.75	2
0	22924	45.75	1
0	22934	45.8	1
0	22935	45.8	2
0	22936	45.8	1
0	22937	45.8	1
0	22938	45.8	2
0	22939	45.8	1
0	22955	45.85	1
0	22956	45.85	2
0	22957	45.85	1
0	22981	45.9	1
0	22982	45.9	2
0	22983	45.9	1
0	22984	45.9	1
0	22985	45.9	2
0	22986	45.9	1
0	23002	45.95	1
0	23003	45.95	2
0	23004	45.95	1
0	23014	46	1
0	23015	46	2
0	23016	46	1
0	23017	46	1
0	23018	46	2
0	23019	46	1
0	23049	46.05	1
0	23050	46.05	2
0	23051	46.05	1
0	23061	46.1	1
0	23062	46.1	2
0	23063	46.1	1
0	23064	46.1	1
0	23065	46.1	2
0	23066	46.1	1
0	23082	46.15	1
0	23083	46.15	2
0	23084	46.15	1
0	23094	46.2	1
0	23095	46.2	2
0	23096	46.2	1
0	23097	46.2	1
0	23098	46.2	2
0	23099	46.2	1
0	23115	46.25	1
0	23116	46.25	2
0	23117	46.25	1
0	23127	46.3	1
0	23128	46.3	2
0	23129	46.3	1
0	23130	46.3	1
0	23131	46.3	2
0	23132	46.3	1
0	23148	46.35	1
0	23149	46.35	2
0	23150	46.35	1
0	23160	46.4	1
0	23161	46.4	2
0	23162	46.4	1
0	23163	46.4	1
0	23164	46.4	2
0	23165	46.4	1
0	23195	46.45	1
0	23196	46.45	2
0	23197	46.45	1
0	23207	46.5	1
0	23208	46.5	2
0	23209	46.5	1
0	23210	46.5	1
0	23211	46.5	2
0	23212	46.5	1
0	23228	46.55	1
0	23229	46.55	2
0	23230	46.55	1
0	23254	46.6	1
0	23255	46.6	2
0	23256	46.6	1
0	23257	46.6	1
0	23258	46.6	2
0	23259	46.6	1
0	23275	46.65	1
0	23276	46.65	2
0	23277	46.65	1
0	23287	46.7	1
0	23288	46.7	2
0	23289	46.7	1
0	23290	46.7	1
0	23291	46.7	2
0	23292	46.7	1
0	23308	46.75	1
0	23309	46.75	2
0	23310	46.75	1
0	23320	46.8	1
0	23321	46.8	2
0	23322	46.8	1
0	23323	46.8	1
0	23324	46.8	2
0	23325	46.8	1
0	23341	46.85	1
0	23342	46.85	2
0	23343	46.85	1
0	23353	46.9	1
0	23354	46.9	2
0	23355	46.9	1
0	23356	46.9	1
0	23357	46.9	2
0	23358	46.9	1
0	23388	46.95	1
0	23389	46.95	2
0	23390	46.95	1
0	23414	47	1
0	23415	47	2
0	23416	47	1
0	23417	47	1
0	23418	47	2
0	23419	47	1
0	23435	47.05	1
0	23436	47.05	2
0	23437	47.05	1
0	23461	47.1	1
0	23462	47.1	2
0	23463	47.1	1
0	23464	47.1	1
0	23465	47.1	2
0	23466	47.1	1
0	23496	47.15	1
0	23497	47.15	2
0	23498	47.15	1
0	23508	47.2	1
0	23509	47.2	2
0	23510	47.2	1
0	23511	47.2	1
0	23512	47.2	2
0	23513	47.2	1
0	23529	47.25	1
0	23530	47.25	2
0	23531	47.25	1
0	23541	47.3	1
0	23542	47.3	2
0	23543	47.3	1
0	23544	47.3	1
0	23545	47.3	2
0	23546	47.3	1
0	23562	47.35	1
0	23563	47.35	2
0	23564	47.35	1
0	23574	47.4	1
0	23575	47.4	2
0	23576	47.4	1
0	23577	47.4	1
0	23578	47.4	2
0	23579	47.4	1
0	23595	47.45	1
0	23596	47.45	2
0	23597	47.45	1
0	23621	47.5	1
0	23622	47.5	2
0	23623	47.5	1
0	23624	47.5	1
0	23625	47.5	2
0	23626	47.5	1
0	23656	47.55	1
0	23657	47.55	2
0	23658	47.55	1
0	23668	47.6	1
0	23669	47.6	2
0	23670	47.6	1
0	23671	47.6	1
0	23672	47.6	2
0	23673	47.6	1
0	23703	47.65	1
0	23704	47.65	2
0	23705	47.65	1
0	23729	47.7	1
0	23730	47.7	2
0	23731	47.7	1
0	23732	47.7	1
0	23733	47.7	2
0	23734	47.7	1
0	23750	47.75	1
0	23751	47.75	2
0	23752	47.75	1
0	23762	47.8	1
0	23763	47.8	2
0	23764	47.8	1
0	23765	47.8	1
0	23766	47.8	2
0	23767	47.8	1
0	23783	47.85	1
0	23784	47.85	2
0	23785	47.85	1
0	23795	47.9	1
0	23796	47.9	2
0	23797	47.9	1
0	23798	47.9	1
0	23799	47.9	2
0	23800	47.9	1
0	23816	47.95	1
0	23817	47.95	2
0	23818	47.95	1
0	23828	48	1
0	23829	48	2
0	23830	48	1
0	23831	48	1
0	23832	48	2
0	23833	48	1
0	23863	48.05	1
0	23864	48.05	2
0	23865	48.05	1
0	23889	48.1	1
0	23890	48.1	2
0	23891	48.1	1
0	23892	48.1	1
0	23893	48.1	2
0	23894	48.1	1
0	23910	48.15	1
0	23911	48.15	2
0	23912	48.15	1
0	23936	48.2	1
0	23937	48.2	2
0	23938	48.2	1
0	23939	48.2	1
0	23940	48.2	2
0	23941	48.2	1
0	23971	48.25	1
0	23972	48.25	2
0	23973	48.25	1
0	23983	48.3	1
0	23984	48.3	2
0	23985	48.3	1
0	23986	48.3	1
0	23987	48.3	2
0	23988	48.3	1
0	24004	48.35	1
0	24005	48.35	2
0	24006	48.35	1
0	24016	48.4	1
0	24017	48.4	2
0	24018	48.4	1
0	24019	48.4	1
0	24020	48.4	2
0	24021	48.4	1
0	24037	48.45	1
0	24038	48.45	2
0	24039	48.45	1
0	24049	48.5	1
0	24050	48.5	2
0	24051	48.5	1
0	24052	48.5	1
0	24053	48.5	2
0	24054	48.5	1
0	24070	48.55	1
0	24071	48.55	2
0	24072	48.55	1
0	24085	48.6	1
0	24086	48.6	2
0	24087	48.6	1
0	24088	48.6	1
0	24089	48.6	2
0	24090	48.6	1
0	24109	48.65	1
0	24110	48.65	2
0	24111	48.65	1
0	24121	48.7	1
0	24122	48.7	2
0	24123	48.7	1
0	24124	48.7	1
0	24125	48.7	2
0	24126	48.7	1
0	24142	48.75	1
0	24143	48.75	2
0	24144	48.75	1
0	24154	48.8	1
0	24155	48.8	2
0	24156	48.8	1
0	24157	48.8	1
0	24158	48.8	2
0	24159	48.8	1
0	24175	48.85	1
0	24176	48.85	2
0	24177	48.85	1
0	24187	48.9	1
0	24188	48.9	2
0	24189	48.9	1
0	24190	48.9	1
0	24191	48.9	2
0	24192	48.9	1
0	24208	48.95	1
0	24209	48.95	2
0	24210	48.95	1
0	24220	49	1
0	24221	49	2
0	24222	49	1
0	24223	49	1
0	24224	49	2
0	24225	49	1
0	24241	49.05	1
0	24242	49.05	2
0	24243	49.05	1
0	24253	49.1	1
0	24254	49.1	2
0	24255	49.1	1
0	24256	49.1	1
0	24257	49.1	2
0	24258	49.1	1
0	24274	49.15	1
0	24275	49.15	2
0	24276	49.15	1
0	24286	49.2	1
0	24287	49.2	2
0	24288	49.2	1
0	24289	49.2	1
0	24290	49.2	2
0	24291	49.2	1
0	24307	49.25	1
0	24308	49.25	2
0	24309	49.25	1
0	24319	49.3	1
0	24320	49.3	2
0	24321	49.3	1
0	24322	49.3	1
0	24323	49.3	2
0	24324	49.3	1
0	24340	49.35	1
0	24341	49.35	2
0	24342	49.35	1
0	24352	49.4	1
0	24353	49.4	2
0	24354	49.4	1
0	24355	49.4	1
0	24356	49.4	2
0	24357	49.4	1
0	24373	49.45	1
0	24374	49.45	2
0	24375	49.45	1
0	24385	49.5	1
0	24386	49.5	2
0	24387	49.5	1
0	24388	49.5	1
0	24389	49.5	2
0	24390	49.5	1
0	24406	49.55	1
0	24407	49.55	2
0	24408	49.55	1
0	24418	49.6	1
0	24419	49.6	2
0	24420	49.6	1
0	24421	49.6	1
0	24422	49.6	2
0	24423	49.6	1
0	24439	49.65	1
0	24440	49.65	2
0	24441	49.65	1
0	24451	49.7	1
0	24452	49.7	2
0	24453	49.7	1
0	24454	49.7	1
0	24455	49.7	2
0	24456	49.7	1
0	24472	49.75	1
0	24473	49.75	2
0	24474	49.75	1
0	24498	49.8	1
0	24499	49.8	2
0	24500	49.8	1
0	24501	49.8	1
0	24502	49.8	2
0	24503	49.8	1
0	24533	49.85	1
0	24534	49.85	2
0	24535	49.85	1
0	24545	49.9	1
0	24546	49.9	2
0	24547	49.9	1
0	24548	49.9	1
0	24549	49.9	2
0	24550	49.9	1
0	24580	49.95	1
0	24581	49.95	2
0	24582	49.95	1
0	24609	50	1
0	24610	50	2
0	24611	50	1
0	24612	50	1
0	24613	50	2
0	24614	50	1
1	22	0.1	-nan
1	24	0.1	-nan
1	47	0.101	-nan
1	48	0.101	-nan
1	51	0.102	-nan
1	52	0.102	-nan
1	55	0.103	-nan
1	56	0.103	-nan
1	59	0.104	-nan
1	60	0.104	-nan
1	63	0.105	-nan
1	64	0.105	-nan
1	67	0.106	-nan
1	68	0.106	-nan
1	71	0.107	-nan
1	72	0.107	-nan
1	75	0.108	-nan
1	76	0.108	-nan
1	79	0.109	-nan
1	80	0.109	-nan
1	83	0.11	-nan
1	84	0.11	-nan
1	87	0.111	-nan
1	88	0.111	-nan
1	91	0.112	-nan
1	92	0.112	-nan
1	95	0.113	-nan
1	96	0.113	-nan
1	99	0.114	-nan
1	100	0.114	-nan
1	103	0.115	-nan
1	104	0.115	-nan
1	107	0.116	-nan
1	108	0.116	-nan
1	111	0.117	-nan
1	112	0.117	-nan
1	115	0.118	-nan
1	116	0.118	-nan
1	119	0.119	-nan
1	120	0.119	-nan
1	123	0.12	-nan
1	124	0.12	-nan
1	127	0.121	-nan
1	128	0.121	-nan
1	131	0.122	-nan
1	132	0.122	-nan
1	135	0.123	-nan
1	136	0.123	-nan
1	139	0.124	-nan
1	140	0.124	-nan
1	143	0.125	-nan
1	144	0.125	-nan
1	147	0.126	-nan
1	148	0.126	-nan
1	151	0.127	-nan
1	152	0.127	-nan
1	155	0.128	-nan
1	156	0.128	-nan
1	159	0.129	-nan
1	160	0.129	-nan
1	163	0.13	-nan
1	164	0.13	-nan
1	167	0.131	-nan
1	168	0.131	-nan
1	171	0.132	-nan
1	172	0.132	-nan
1	175	0.133	-nan
1	176	0.133	-nan
1	179	0.134	-nan
1	180	0.134	-nan
1	183	0.135	-nan
1	184	0.135	-nan
1	187	0.136	-nan
1	188	0.136	-nan
1	191	0.137	-nan
1	192	0.137	-nan
1	195	0.138	-nan
1	196	0.138	-nan
1	199	0.139	-nan
1	200	0.139	-nan
1	203	0.14	-nan
1	204	0.14	-nan
1	207	0.141	-nan
1	208	0.141	-nan
1	211	0.142	-nan
1	212	0.142	-nan
1	215	0.143	-nan
1	216	0.143	-nan
1	219	0.144	-nan
1	220	0.144	-nan
1	223	0.145	-nan
1	224	0.145	-nan
1	227	0.146	-nan
1	228	0.146	-nan
1	231	0.147	-nan
1	232	0.147	-nan
1	235	0.148	-nan
1	236	0.148	-nan
1	239	0.149	-nan
1	240	0.149	-nan
1	246	0.15	-nan
1	247	0.15	-nan
1	259	0.151	-nan
1	260	0.151	-nan
1	263	0.152	-nan
1	264	0.152	-nan
1	267	0.153	-nan
1	268	0.153	-nan
1	271	0.154	-nan
1	272	0.154	-nan
1	275	0.155	-nan
1	276	0.155	-nan
1	279	0.156	-nan
1	280	0.156	-nan
1	283	0.157	-nan
1	284	0.157	-nan
1	287	0.158	-nan
1	288	0.158	-nan
1	291	0.159	-nan
1	292	0.159	-nan
1	295	0.16	-nan
1	296	0.16	-nan
1	299	0.161	-nan
1	300	0.161	-nan
1	303	0.162	-nan
1	304	0.162	-nan
1	307	0.163	-nan
1	308	0.163	-nan
1	311	0.164	-nan
1	312	0.164	-nan
1	315	0.165	-nan
1	316	0.165	-nan
1	319	0.166	-nan
1	320	0.166	-nan
1	323	0.167	-nan
1	324	0.167	-nan
1	327	0.168	-nan
1	328	0.168	-nan
1	331	0.169	-nan
1	332	0.169	-nan
1	335	0.17	-nan
1	336	0.17	-nan
1	339	0.171	-nan
1	340	0.171	-nan
1	343	0.172	-nan
1	344	0.172	-nan
1	347	0.173	-nan
1	348	0.173	-nan
1	351	0.174	-nan
1	352	0.174	-nan
1	355	0.175	-nan
1	356	0.175	-nan
1	359	0.176	-nan
1	360	0.176	-nan
1	363	0.177	-nan
1	364	0.177	-nan
1	367	0.178	-nan
1	368	0.178	-nan
1	371	0.179	-nan
1	372	0.179	-nan
1	375	0.18	-nan
1	376	0.18	-nan
1	379	0.181	-nan
1	380	0.181	-nan
1	383	0.182	-nan
1	384	0.182	-nan
1	387	0.183	-nan
1	388	0.183	-nan
1	391	0.184	-nan
1	392	0.184	-nan
1	395	0.185	-nan
1	396	0.185	-nan
1	399	0.186	-nan
1	400	0.186	-nan
1	403	0.187	-nan
1	404	0.187	-nan
1	407	0.188	-nan
1	408	0.188	-nan
1	411	0.189	-nan
1	412	0.189	-nan
1	415	0.19	-nan
1	416	0.19	-nan
1	419	0.191	-nan
1	420	0.191	-nan
1	423	0.192	-nan
1	424	0.192	-nan
1	427	0.193	-nan
1	428	0.193	-nan
1	431	0.194	-nan
1	432	0.194	-nan
1	435	0.195	-nan
1	436	0.195	-nan
1	439	0.196	-nan
1	440	0.196	-nan
1	443	0.197	-nan
1	444	0.197	-nan
1	447	0.198	-nan
1	448	0.198	-nan
1	451	0.199	-nan
1	452	0.199	-nan
2	1032	1.142624192201	141
2	1054	1.156464192201	282
2	1064	1.170304192201	423
2	1074	1.184144192201	564
2	1084	1.197984192201	705
2	1115	1.211824192201	846
2	1125	1.225664192201	987
2	1135	1.239504192201	1128
2	1157	1.253344192201	1269
2	1167	1.267184192201	1410
2	1177	1.281024192201	1551
2	1187	1.294864192201	1692
2	1218	1.308704192201	1833
2	1228	1.322544192201	1974
2	1238	1.336384192201	2115
2	1260	1.350224192201	2256
2	1270	1.364064192201	2397
2	1280	1.377904192201	2538
2	1290	1.391744192201	2679
2	1322	1.419424192201	2820
2	1332	1.433264192201	2961
2	1342	1.447104192201	3102
2	1364	1.460944192201	3243
2	1374	1.474784192201	3384
2	1384	1.488624192201	3525
2	1412	1.502464192201	3666
2	1422	1.516304192201	3807
2	1432	1.530144192201	3948
2	1442	1.543984192201	4089
2	1464	1.557824192201	4230
2	1474	1.571664192201	4371
2	1485	1.599344192201	4512
2	1516	1.613184192201	4653
2	1526	1.627024192201	4794
2	1536	1.640864192201	4935
2	1566	1.654704192201	5076
2	1590	1.668544192201	5217
2	1600	1.682384192201	5358
2	1610	1.696224192201	5499
2	1638	1.710064192201	5640
2	1648	1.723904192201	5781
2	1658	1.737744192201	5922
2	1680	1.751584192201	6063
2	1690	1.765424192201	6204
2	1701	1.793104192201	6345
2	1732	1.806944192201	6486
2	1742	1.820784192201	6627
2	1749	1.834624192201	6768
2	1759	1.848464192201	6909
2	1781	1.862304192201	7050
2	1791	1.876144192201	7191
2	1801	1.889984192201	7332
2	1832	1.903824192201	7473
2	1842	1.917664192201	7614
2	1852	1.931504192201	7755
2	1862	1.945344192201	7896
2	1881	1.959184192201	8037
2	1891	1.973024192201	8178
2	1901	1.986864192201	8319
2	1932	2.000704192201	8460
2	1939	2.014544192201	8601
2	1949	2.028384192201	8742
2	1959	2.042224192201	8883
2	1981	2.056064192201	9024
2	1991	2.069904192201	9165
2	2001	2.083744192201	9306
2	2011	2.097584192201	9447
2	2042	2.111424192201	9588
2	2052	2.125264192201	9729
2	2062	2.139104192201	9870
2	2081	2.152944192201	10011
2	2091	2.166784192201	10152
2	2101	2.180624192201	10293
2	2111	2.194464192201	10434
2	2146	2.208304192201	10575
2	2156	2.222144192201	10716
2	2166	2.235984192201	10857
2	2176	2.249824192201	10998
2	2198	2.263664192201	11139
2	2208	2.277504192201	11280
2	2218	2.291344192201	11421
2	2249	2.305184192201	11562
2	2259	2.319024192201	11703
2	2269	2.332864192201	11844
2	2279	2.346704192201	11985
2	2301	2.360544192201	12126
2	2311	2.374384192201	12267
2	2321	2.388224192201	12408
2	2353	2.415904192201	12549
2	2363	2.429744192201	12690
2	2373	2.443584192201	12831
2	2395	2.457424192201	12972
2	2405	2.471264192201	13113
2	2415	2.485104192201	13254
2	2425	2.498944192201	13395
2	2456	2.512784192201	13536
2	2526	2.579413385287	13677
2	2536	2.593253385287	13818
2	2567	2.607093385287	13959
2	2574	2.620933385287	14100
2	2584	2.634773385287	14241
2	2594	2.648613385287	14382
2	2613	2.662453385287	14523
2	2623	2.676293385287	14664
2	2633	2.690133385287	14805
2	2668	2.703973385287	14946
2	2903	2.742293385287	15087
2	2925	2.756133385287	15228
2	2935	2.769973385287	15369
2	2945	2.783813385287	15510
2	2952	2.797653385287	15651
2	2983	2.811493385287	15792
2	2993	2.825333385287	15933
2	3003	2.839173385287	16074
2	3029	2.853013385287	16215
2	3042	2.866853385287	16356
2	3068	2.880693385287	16497
2	3078	2.894533385287	16638
2	3109	2.908373385287	16779
2	3119	2.922213385287	16920
2	3129	2.936053385287	17061
2	3139	2.949893385287	17202
2	3161	2.963733385287	17343
2	3171	2.977573385287	17484
2	3178	2.991413385287	17625
2	3209	3.005253385287	17766
2	3219	3.019093385287	17907
2	3229	3.032933385287	18048
2	3239	3.046773385287	18189
2	3261	3.060613385287	18330
2	3272	3.088293385287	18471
2	3301	3.115973385287	18612
2	3311	3.129813385287	18753
2	3321	3.143653385287	18894
2	3340	3.157493385287	19035
2	3350	3.171333385287	19176
2	3360	3.185173385287	19317
2	3370	3.199013385287	19458
2	3401	3.212853385287	19599
2	3411	3.226693385287	19740
2	3421	3.240533385287	19881
2	3447	3.254373385287	20022
2	3469	3.268213385287	20163
2	3479	3.282053385287	20304
2	3489	3.295893385287	20445
2	3520	3.309733385287	20586
2	3530	3.323573385287	20727
2	3540	3.337413385287	20868
2	3562	3.351253385287	21009
2	3569	3.365093385287	21150
2	3579	3.378933385287	21291
2	3589	3.392773385287	21432
2	3622	3.406613385287	21573
2	3644	3.420453385287	21714
2	3654	3.434293385287	21855
2	3664	3.448133385287	21996
2	3687	3.475813385287	22137
2	3697	3.489653385287	22278
2	3728	3.503493385287	22419
2	3738	3.517333385287	22560
2	3748	3.531173385287	22701
2	3771	3.558853385287	22842
2	3782	3.586533385287	22983
2	3810	3.600373385287	23124
2	3820	3.614213385287	23265
2	3830	3.628053385287	23406
2	3840	3.641893385287	23547
2	3862	3.655733385287	23688
2	3872	3.669573385287	23829
2	3882	3.683413385287	23970
2	3892	3.697253385287	24111
2	3923	3.711093385287	24252
2	3933	3.724933385287	24393
2	3943	3.738773385287	24534
2	3965	3.752613385287	24675
2	3975	3.766453385287	24816
2	3985	3.780293385287	24957
2	3995	3.794133385287	25098
2	4028	3.807973385287	25239
2	4050	3.821813385287	25380
2	4060	3.835653385287	25521
2	4070	3.849493385287	25662
2	4092	3.863333385287	25803
2	4102	3.877173385287	25944
2	4134	3.904853385287	26085
2	4144	3.918693385287	26226
2	4154	3.932533385287	26367
2	4164	3.946373385287	26508
2	4195	3.960213385287	26649
2	4210	3.974053385287	26790
2	4220	3.987893385287	26931
2	4251	4.001733385287	27072
2	4258	4.015573385287	27213
2	4268	4.029413385287	27354
2	4278	4.043253385287	27495
2	4297	4.057093385287	27636
2	4307	4.070933385287	27777
2	4317	4.084773385287	27918
2	4324	4.098613385287	28059
2	4610	4.628453385287	28200
2	4620	4.642293385287	28341
2	4642	4.656133385287	28482
2	4652	4.669973385287	28623
2	4660	4.697653385287	28764
2	4691	4.711493385287	28905
2	4701	4.725333385287	29046
2	4711	4.739173385287	29187
2	4733	4.753013385287	29328
2	4743	4.766853385287	29469
2	4753	4.780693385287	29610
2	4763	4.794533385287	29751
2	4794	4.808373385287	29892
2	4804	4.822213385287	30033
2	4814	4.836053385287	30174
2	4998	5.178453385287	30315
2	5008	5.192293385287	30456
2	6059	7.251973385287	30597
2	6069	7.265813385287	30738
2	6079	7.279653385287	30879
2	6089	7.293493385287	31020
2	6120	7.307333385287	31161
2	6130	7.321173385287	31302
2	6140	7.335013385287	31443
2	6150	7.348853385287	31584
2	6190	7.362693385287	31725
2	6200	7.376533385287	31866
2	6210	7.390373385287	32007
2	6241	7.404213385287	32148
2	6251	7.418053385287	32289
2	6261	7.431893385287	32430
2	6271	7.445733385287	32571
2	6293	7.459573385287	32712
2	6303	7.473413385287	32853
2	6313	7.487253385287	32994
2	6344	7.501093385287	33135
2	6354	7.514933385287	33276
2	6364	7.528773385287	33417
2	6374	7.542613385287	33558
2	6396	7.556453385287	33699
2	6406	7.570293385287	33840
2	6416	7.584133385287	33981
2	6426	7.597973385287	34122
2	6457	7.611813385287	34263
2	6467	7.625653385287	34404
2	6477	7.639493385287	34545
2	6499	7.653333385287	34686
2	6509	7.667173385287	34827
2	6519	7.681013385287	34968
2	6529	7.694853385287	35109
2	6560	7.708693385287	35250
2	6570	7.722533385287	35391
2	6580	7.736373385287	35532
2	6606	7.750213385287	35673
2	6616	7.764053385287	35814
2	6626	7.777893385287	35955
2	6636	7.791733385287	36096
2	6667	7.805573385287	36237
2	6677	7.819413385287	36378
2	6687	7.833253385287	36519
2	6697	7.847093385287	36660
2	6720	7.874773385287	36801
2	6730	7.888613385287	36942
2	6761	7.902453385287	37083
2	6771	7.916293385287	37224
2	6781	7.930133385287	37365
2	6791	7.943973385287	37506
2	6813	7.957813385287	37647
2	6823	7.971653385287	37788
2	6833	7.985493385287	37929
2	6843	7.999333385287	38070
2	6874	8.013173385287	38211
2	6884	8.027013385287	38352
2	6894	8.040853385287	38493
2	6916	8.054693385287	38634
2	6927	8.082373385287	38775
2	6937	8.096213385287	38916
2	6968	8.110053385287	39057
2	6978	8.123893385287	39198
2	6985	8.137733385287	39339
2	7007	8.151573385287	39480
2	7017	8.165413385287	39621
2	7027	8.179253385287	39762
2	7037	8.193093385287	39903
2	7068	8.206933385287	40044
2	7078	8.220773385287	40185
2	7088	8.234613385287	40326
2	7098	8.248453385287	40467
2	7120	8.262293385287	40608
2	7127	8.276133385287	40749
2	7137	8.289973385287	40890
2	7168	8.303813385287	41031
2	7178	8.317653385287	41172
2	7188	8.331493385287	41313
2	7198	8.345333385287	41454
2	7220	8.359173385287	41595
2	7230	8.373013385287	41736
2	7240	8.386853385287	41877
2	7271	8.400693385287	42018
2	7281	8.414533385287	42159
2	7291	8.428373385287	42300
2	7301	8.442213385287	42441
2	7323	8.456053385287	42582
2	7333	8.469893385287	42723
2	7343	8.483733385287	42864
2	7353	8.497573385287	43005
2	7384	8.511413385287	43146
2	7394	8.525253385287	43287
2	7404	8.539093385287	43428
2	7426	8.552933385287	43569
2	7436	8.566773385287	43710
2	7446	8.580613385287	43851
2	7456	8.594453385287	43992
2	7487	8.608293385287	44133
2	7497	8.622133385287	44274
2	7507	8.635973385287	44415
2	7731	9.088133385287	44556
2	7762	9.101973385287	44697
2	7772	9.115813385287	44838
2	7782	9.129653385287	44979
2	7792	9.143493385287	45120
3	1032	1.142624192201	141
3	1054	1.156464192201	282
3	1064	1.170304192201	423
3	1074	1.184144192201	564
3	1084	1.197984192201	705
3	1115	1.211824192201	846
3	1125	1.225664192201	987
3	1135	1.239504192201	1128
3	1157	1.253344192201	1269
3	1167	1.267184192201	1410
3	1177	1.281024192201	1551
3	1187	1.294864192201	1692
3	1218	1.308704192201	1833
3	1228	1.322544192201	1974
3	1238	1.336384192201	2115
3	1260	1.350224192201	2256
3	1270	1.364064192201	2397
3	1280	1.377904192201	2538
3	1290	1.391744192201	2679
3	1322	1.419424192201	2820
3	1332	1.433264192201	2961
3	1342	1.447104192201	3102
3	1364	1.460944192201	3243
3	1374	1.474784192201	3384
3	1384	1.488624192201	3525
3	1412	1.502464192201	3666
3	1422	1.516304192201	3807
3	1432	1.530144192201	3948
3	1442	1.543984192201	4089
3	1464	1.557824192201	4230
3	1474	1.571664192201	4371
3	1485	1.599344192201	4512
3	1516	1.613184192201	4653
3	1526	1.627024192201	4794
3	1536	1.640864192201	4935
3	1566	1.654704192201	5076
3	1590	1.668544192201	5217
3	1600	1.682384192201	5358
3	1610	1.696224192201	5499
3	1638	1.710064192201	5640
3	1648	1.723904192201	5781
3	1658	1.737744192201	5922
3	1680	1.751584192201	6063
3	1690	1.765424192201	6204
3	1701	1.793104192201	6345
3	1732	1.806944192201	6486
3	1742	1.820784192201	6627
3	1749	1.834624192201	6768
3	1759	1.848464192201	6909
3	1781	1.862304192201	7050
3	1791	1.876144192201	7191
3	1801	1.889984192201	7332
3	1832	1.903824192201	7473
3	1842	1.917664192201	7614
3	1852	1.931504192201	7755
3	1862	1.945344192201	7896
3	1881	1.959184192201	8037
3	1891	1.973024192201	8178
3	1901	1.986864192201	8319
3	1932	2.000704192201	8460
3	1939	2.014544192201	8601
3	1949	2.028384192201	8742
3	1959	2.042224192201	8883
3	1981	2.056064192201	9024
3	1991	2.069904192201	9165
3	2001	2.083744192201	9306
3	2011	2.097584192201	9447
3	2042	2.111424192201	9588
3	2052	2.125264192201	9729
3	2062	2.139104192201	9870
3	2081	2.152944192201	10011
3	2091	2.166784192201	10152
3	2101	2.180624192201	10293
3	2111	2.194464192201	10434
3	2146	2.208304192201	10575
3	2156	2.222144192201	10716
3	2166	2.235984192201	10857
3	2176	2.249824192201	10998
3	2198	2.263664192201	11139
3	2208	2.277504192201	11280
3	2218	2.291344192201	11421
3	2249	2.305184192201	11562
3	2259	2.319024192201	11703
3	2269	2.332864192201	11844
3	2279	2.346704192201	11985
3	2301	2.360544192201	12126
3	2311	2.374384192201	12267
3	2321	2.388224192201	12408
3	2353	2.415904192201	12549
3	2363	2.429744192201	12690
3	2373	2.443584192201	12831
3	2395	2.457424192201	12972
3	2405	2.471264192201	13113
3	2415	2.485104192201	13254
3	2425	2.498944192201	13395
3	2456	2.512784192201	13536
3	2526	2.579413385287	13677
3	2536	2.593253385287	13818
3	2567	2.607093385287	13959
3	2574	2.620933385287	14100
3	2584	2.634773385287	14241
3	2594	2.648613385287	14382
3	2613	2.662453385287	14523
3	2623	2.676293385287	14664
3	2633	2.690133385287	14805
3	2668	2.703973385287	14946
3	2903	2.742293385287	15087
3	2925	2.756133385287	15228
3	2935	2.769973385287	15369
3	2945	2.783813385287	15510
3	2952	2.797653385287	15651
3	2983	2.811493385287	15792
3	2993	2.825333385287	15933
3	3003	2.839173385287	16074
3	3029	2.853013385287	16215
3	3042	2.866853385287	16356
3	3068	2.880693385287	16497
3	3078	2.894533385287	16638
3	3109	2.908373385287	16779
3	3119	2.922213385287	16920
3	3129	2.936053385287	17061
3	3139	2.949893385287	17202
3	3161	2.963733385287	17343
3	3171	2.977573385287	17484
3	3178	2.991413385287	17625
3	3209	3.005253385287	17766
3	3219	3.019093385287	17907
3	3229	3.032933385287	18048
3	3239	3.046773385287	18189
3	3261	3.060613385287	18330
3	3272	3.088293385287	18471
3	3301	3.115973385287	18612
3	3311	3.129813385287	18753
3	3321	3.143653385287	18894
3	3340	3.157493385287	19035
3	3350	3.171333385287	19176
3	3360	3.185173385287	19317
3	3370	3.199013385287	19458
3	3401	3.212853385287	19599
3	3411	3.226693385287	19740
3	3421	3.240533385287	19881
3	3447	3.254373385287	20022
3	3469	3.268213385287	20163
3	3479	3.282053385287	20304
3	3489	3.295893385287	20445
3	3520	3.309733385287	20586
3	3530	3.323573385287	20727
3	3540	3.337413385287	20868
3	3562	3.351253385287	21009
3	3569	3.365093385287	21150
3	3579	3.378933385287	21291
3	3589	3.392773385287	21432
3	3622	3.406613385287	21573
3	3644	3.420453385287	21714
3	3654	3.434293385287	21855
3	3664	3.448133385287	21996
3	3687	3.475813385287	22137
3	3697	3.489653385287	22278
3	3728	3.503493385287	22419
3	3738	3.517333385287	22560
3	3748	3.531173385287	22701
3	3771	3.558853385287	22842
3	3782	3.586533385287	22983
3	3810	3.600373385287	23124
3	3820	3.614213385287	23265
3	3830	3.628053385287	23406
3	3840	3.641893385287	23547
3	3862	3.655733385287	23688
3	3872	3.669573385287	23829
3	3882	3.683413385287	23970
3	3892	3.697253385287	24111
3	3923	3.711093385287	24252
3	3933	3.724933385287	24393
3	3943	3.738773385287	24534
3	3965	3.752613385287	24675
3	3975	3.766453385287	24816
3	3985	3.780293385287	24957
3	3995	3.794133385287	25098
3	4028	3.807973385287	25239
3	4050	3.821813385287	25380
3	4060	3.835653385287	25521
3	4070	3.849493385287	25662
3	4092	3.863333385287	25803
3	4102	3.877173385287	25944
3	4134	3.904853385287	26085
3	4144	3.918693385287	26226
3	4154	3.932533385287	26367
3	4164	3.946373385287	26508
3	4195	3.960213385287	26649
3	4210	3.974053385287	26790
3	4220	3.987893385287	26931
3	4251	4.001733385287	27072
3	4258	4.015573385287	27213
3	4268	4.029413385287	27354
3	4278	4.043253385287	27495
3	4297	4.057093385287	27636
3	4307	4.070933385287	27777
3	4317	4.084773385287	27918
3	4324	4.098613385287	28059
3	4610	4.628453385287	28200
3	4620	4.642293385287	28341
3	4642	4.656133385287	28482
3	4652	4.669973385287	28623
3	4660	4.697653385287	28764
3	4691	4.711493385287	28905
3	4701	4.725333385287	29046
3	4711	4.739173385287	29187
3	4733	4.753013385287	29328
3	4743	4.766853385287	29469
3	4753	4.780693385287	29610
3	4763	4.794533385287	29751
3	4794	4.808373385287	29892
3	4804	4.822213385287	30033
3	4814	4.836053385287	30174
3	4998	5.178453385287	30315
3	5008	5.192293385287	30456
3	6059	7.251973385287	30597
3	6069	7.265813385287	30738
3	6079	7.279653385287	30879
3	6089	7.293493385287	31020
3	6120	7.307333385287	31161
3	6130	7.321173385287	31302
3	6140	7.335013385287	31443
3	6150	7.348853385287	31584
3	6190	7.362693385287	31725
3	6200	7.376533385287	31866
3	6210	7.390373385287	32007
3	6241	7.404213385287	32148
3	6251	7.418053385287	32289
3	6261	7.431893385287	32430
3	6271	7.445733385287	32571
3	6293	7.459573385287	32712
3	6303	7.473413385287	32853
3	6313	7.487253385287	32994
3	6344	7.501093385287	33135
3	6354	7.514933385287	33276
3	6364	7.528773385287	33417
3	6374	7.542613385287	33558
3	6396	7.556453385287	33699
3	6406	7.570293385287	33840
3	6416	7.584133385287	33981
3	6426	7.597973385287	34122
3	6457	7.611813385287	34263
3	6467	7.625653385287	34404
3	6477	7.639493385287	34545
3	6499	7.653333385287	34686
3	6509	7.667173385287	34827
3	6519	7.681013385287	34968
3	6529	7.694853385287	35109
3	6560	7.708693385287	35250
3	6570	7.722533385287	35391
3	6580	7.736373385287	35532
3	6606	7.750213385287	35673
3	6616	7.764053385287	35814
3	6626	7.777893385287	35955
3	6636	7.791733385287	36096
3	6667	7.805573385287	36237
3	6677	7.819413385287	36378
3	6687	7.833253385287	36519
3	6697	7.847093385287	36660
3	6720	7.874773385287	36801
3	6730	7.888613385287	36942
3	6761	7.902453385287	37083
3	6771	7.916293385287	37224
3	6781	7.930133385287	37365
3	6791	7.943973385287	37506
3	6813	7.957813385287	37647
3	6823	7.971653385287	37788
3	6833	7.985493385287	37929
3	6843	7.999333385287	38070
3	6874	8.013173385287	38211
3	6884	8.027013385287	38352
3	6894	8.040853385287	38493
3	6916	8.054693385287	38634
3	6927	8.082373385287	38775
3	6937	8.096213385287	38916
3	6968	8.110053385287	39057
3	6978	8.123893385287	39198
3	6985	8.137733385287	39339
3	7007	8.151573385287	39480
3	7017	8.165413385287	39621
3	7027	8.179253385287	39762
3	7037	8.193093385287	39903
3	7068	8.206933385287	40044
3	7078	8.220773385287	40185
3	7088	8.234613385287	40326
3	7098	8.248453385287	40467
3	7120	8.262293385287	40608
3	7127	8.276133385287	40749
3	7137	8.289973385287	40890
3	7168	8.303813385287	41031
3	7178	8.317653385287	41172
3	7188	8.331493385287	41313
3	7198	8.345333385287	41454
3	7220	8.359173385287	41595
3	7230	8.373013385287	41736
3	7240	8.386853385287	41877
3	7271	8.400693385287	42018
3	7281	8.414533385287	42159
3	7291	8.428373385287	42300
3	7301	8.442213385287	42441
3	7323	8.456053385287	42582
3	7333	8.469893385287	42723
3	7343	8.483733385287	42864
3	7353	8.497573385287	43005
3	7384	8.511413385287	43146
3	7394	8.525253385287	43287
3	7404	8.539093385287	43428
3	7426	8.552933385287	43569
3	7436	8.566773385287	43710
3	7446	8.580613385287	43851
3	7456	8.594453385287	43992
3	7487	8.608293385287	44133
3	7497	8.622133385287	44274
3	7507	8.635973385287	44415
3	7731	9.088133385287	44556
3	7762	9.101973385287	44697
3	7772	9.115813385287	44838
3	7782	9.129653385287	44979
3	7792	9.143493385287	45120

