version 2
run A2-0-20191017-20:55:57-29402
attr configname A2
attr datetime 20191017-20:55:57
attr experiment A2
attr inifile GwSimV1.ini
attr iterationvars ""
attr iterationvarsf ""
attr measurement ""
attr network NetworkTormV2
attr processid 29402
attr repetition 0
attr replication #0
attr resultdir results
attr runnumber 0
attr seedset 0
param **.mobility.traceFile "\"AllPaths/sPaths/A.movements\""
param **.numNodes 3
param **.wirelessIfc.wirelessRange 40m
param **.bluetoothIfc.wirelessRange 40m
param **application.destinationAddr "\"Wf:00:00:00:00:02\""
param **application.destinationBTAddr "\"Bt:00:00:00:00:02\""
param **application.nodesThatGen true
param **application.nodesGenMsg "\"0,1\""
param **application.startMultipleMsg true
param **application.numMultipleMsg 100
param **application.hopsListSize 50
param **.numNodes 2
param **.application.usedRNG 1
param **.application.dataGenerationInterval 1s
param **.application.dataSizeInBytes 10
param **.application.ttl 999999s
param **application.destinationAddr "\"Wf:00:00:00:00:02\""
param **application.destinationBTAddr "\"Bt:00:00:00:00:02\""
param **application.nodesThatGen true
param **application.nodesGenMsg "\"0\""
param **application.startMultipleMsg true
param **application.numMultipleMsg 100
param **application.hopsListSize 50
param **.application.endGeneratingMsg 999999s
param **.routingLayer "\"RoutingLqeGw\""
param **.routing.maximumCacheSize 5000byte
param **.routing.maximumHopCount 25
param **.routing.useTTL false
param **.routing.waitBFsend 0.1
param **.routing.max_age 999999s
param **.routing.gateway_list "\"\""
param **.routing.actual_gateway "\"\""
param **.routing.gwCheckPeriod 5s
param **.neighboring.antiEntropyInterval 500ms
param **.neighboring.maximumRandomBackoffDuration 1s
param **.neighboring.delayPerDataMsg 0.1
param **neighboring.usedRNG 2
param **.neighboring.GWAddr "\"Wf:00:00:00:00:02\""
param **.neighboring.sendWifiFirst true
param **.neighboring.maxLengthGraph 20
param **.neighboring.max_age 999999s
param **.neighboring.max_absent_time 1s
param **.wirelessIfc.wirelessRange 40m
param **.wirelessIfc.neighbourScanInterval 50ms
param **.wirelessIfc.bandwidthBitRate 100000bps
param **.wirelessIfc.wirelessHeaderSize 32byte
param **.wirelessIfc.minSSI -90
param **.wirelessIfc.limitQueueTime 400ms
param **.wirelessIfc.my_limit_rate 0bps
param **.bluetoothIfc.wirelessRange 40m
param **.bluetoothIfc.neighbourScanInterval 100ms
param **.bluetoothIfc.bandwidthBitRate 100000bps
param **.bluetoothIfc.wirelessHeaderSize 16byte
param **.bluetoothIfc.minSSI -90
param **.mobilityType "\"BonnMotionMobility\""
param **.mobility.traceFile "\"paths/Moves2.movements\""
param **.mobility.is3D false
param **.mobility.nodeId -1

vector 0 NetworkTormV2 neighbourhoodSize:vector ETV
attr source neighbourhoodSize
vector 1 NetworkTormV2 deliveryRatio:vector ETV
attr source sum(totalDataBytesReceived)/sum(totalDataBytesReceivableByAllNodes)
vector 2 NetworkTormV2 dataBytesReceivedSum:vector ETV
attr source sum(dataBytesReceived)
vector 3 NetworkTormV2 totalBytesReceivedSum:vector ETV
attr source sum(totalBytesReceived)
0	10	0.05	2
0	11	0.05	2
0	12	0.05	2
0	38	0.1	2
0	40	0.1	2
0	41	0.1	2
0	42	0.1	2
0	43	0.1	2
0	44	0.1	2
0	77	0.15	2
0	78	0.15	2
0	79	0.15	2
0	104	0.2	2
0	105	0.2	2
0	106	0.2	2
0	107	0.2	2
0	108	0.2	2
0	109	0.2	2
0	140	0.25	2
0	141	0.25	2
0	142	0.25	2
0	167	0.3	2
0	168	0.3	2
0	169	0.3	2
0	170	0.3	2
0	171	0.3	2
0	172	0.3	2
0	203	0.35	2
0	204	0.35	2
0	205	0.35	2
0	230	0.4	2
0	231	0.4	2
0	232	0.4	2
0	233	0.4	2
0	234	0.4	2
0	235	0.4	2
0	266	0.45	2
0	267	0.45	2
0	268	0.45	2
0	293	0.5	2
0	294	0.5	2
0	295	0.5	2
0	296	0.5	2
0	297	0.5	2
0	298	0.5	2
0	329	0.55	2
0	330	0.55	2
0	331	0.55	2
0	356	0.6	2
0	357	0.6	2
0	358	0.6	2
0	359	0.6	2
0	360	0.6	2
0	361	0.6	2
0	392	0.65	2
0	393	0.65	2
0	394	0.65	2
0	419	0.7	2
0	420	0.7	2
0	421	0.7	2
0	422	0.7	2
0	423	0.7	2
0	424	0.7	2
0	455	0.75	2
0	456	0.75	2
0	457	0.75	2
0	482	0.8	2
0	483	0.8	2
0	484	0.8	2
0	485	0.8	2
0	486	0.8	2
0	487	0.8	2
0	518	0.85	2
0	519	0.85	2
0	520	0.85	2
0	545	0.9	2
0	546	0.9	2
0	547	0.9	2
0	548	0.9	2
0	549	0.9	2
0	550	0.9	2
0	581	0.95	2
0	582	0.95	2
0	583	0.95	2
0	608	1	2
0	609	1	2
0	610	1	2
0	611	1	2
0	612	1	2
0	613	1	2
0	644	1.05	2
0	645	1.05	2
0	646	1.05	2
0	673	1.1	2
0	674	1.1	2
0	675	1.1	2
0	676	1.1	2
0	677	1.1	2
0	678	1.1	2
0	849	1.15	2
0	850	1.15	2
0	851	1.15	2
0	876	1.2	2
0	877	1.2	2
0	878	1.2	2
0	879	1.2	2
0	880	1.2	2
0	881	1.2	2
0	912	1.25	2
0	913	1.25	2
0	914	1.25	2
0	939	1.3	2
0	940	1.3	2
0	941	1.3	2
0	942	1.3	2
0	943	1.3	2
0	944	1.3	2
0	975	1.35	2
0	976	1.35	2
0	977	1.35	2
0	1002	1.4	2
0	1003	1.4	2
0	1004	1.4	2
0	1005	1.4	2
0	1006	1.4	2
0	1007	1.4	2
0	1038	1.45	2
0	1039	1.45	2
0	1040	1.45	2
0	1065	1.5	2
0	1066	1.5	2
0	1067	1.5	2
0	1068	1.5	2
0	1069	1.5	2
0	1070	1.5	2
0	1101	1.55	2
0	1102	1.55	2
0	1103	1.55	2
0	1128	1.6	2
0	1129	1.6	2
0	1130	1.6	2
0	1131	1.6	2
0	1132	1.6	2
0	1133	1.6	2
0	1164	1.65	2
0	1165	1.65	2
0	1166	1.65	2
0	1329	1.7	2
0	1330	1.7	2
0	1331	1.7	2
0	1332	1.7	2
0	1333	1.7	2
0	1334	1.7	2
0	1365	1.75	2
0	1366	1.75	2
0	1367	1.75	2
0	1392	1.8	2
0	1393	1.8	2
0	1394	1.8	2
0	1395	1.8	2
0	1396	1.8	2
0	1397	1.8	2
0	1428	1.85	2
0	1429	1.85	2
0	1430	1.85	2
0	1455	1.9	2
0	1456	1.9	2
0	1457	1.9	2
0	1458	1.9	2
0	1459	1.9	2
0	1460	1.9	2
0	1491	1.95	2
0	1492	1.95	2
0	1493	1.95	2
0	1518	2	2
0	1519	2	2
0	1520	2	2
0	1521	2	2
0	1522	2	2
0	1523	2	2
0	1554	2.05	2
0	1555	2.05	2
0	1556	2.05	2
0	1583	2.1	2
0	1584	2.1	2
0	1585	2.1	2
0	1586	2.1	2
0	1587	2.1	2
0	1588	2.1	2
0	1621	2.15	2
0	1622	2.15	2
0	1623	2.15	2
0	1648	2.2	2
0	1649	2.2	2
0	1650	2.2	2
0	1651	2.2	2
0	1652	2.2	2
0	1653	2.2	2
0	1822	2.25	2
0	1823	2.25	2
0	1824	2.25	2
0	1849	2.3	2
0	1850	2.3	2
0	1851	2.3	2
0	1852	2.3	2
0	1853	2.3	2
0	1854	2.3	2
0	1885	2.35	2
0	1886	2.35	2
0	1887	2.35	2
0	1912	2.4	2
0	1913	2.4	2
0	1914	2.4	2
0	1915	2.4	2
0	1916	2.4	2
0	1917	2.4	2
0	1948	2.45	2
0	1949	2.45	2
0	1950	2.45	2
0	1975	2.5	2
0	1976	2.5	2
0	1977	2.5	2
0	1978	2.5	2
0	1979	2.5	2
0	1980	2.5	2
0	2011	2.55	2
0	2012	2.55	2
0	2013	2.55	2
0	2038	2.6	2
0	2039	2.6	2
0	2040	2.6	2
0	2041	2.6	2
0	2042	2.6	2
0	2043	2.6	2
0	2074	2.65	2
0	2075	2.65	2
0	2076	2.65	2
0	2101	2.7	2
0	2102	2.7	2
0	2103	2.7	2
0	2104	2.7	2
0	2105	2.7	2
0	2106	2.7	2
0	2137	2.75	2
0	2138	2.75	2
0	2139	2.75	2
0	2302	2.8	2
0	2303	2.8	2
0	2304	2.8	2
0	2305	2.8	2
0	2306	2.8	2
0	2307	2.8	2
0	2338	2.85	2
0	2339	2.85	2
0	2340	2.85	2
0	2365	2.9	2
0	2366	2.9	2
0	2367	2.9	2
0	2368	2.9	2
0	2369	2.9	2
0	2370	2.9	2
0	2401	2.95	2
0	2402	2.95	2
0	2403	2.95	2
0	2428	3	2
0	2429	3	2
0	2430	3	2
0	2431	3	2
0	2432	3	2
0	2433	3	2
0	2464	3.05	2
0	2465	3.05	2
0	2466	3.05	2
0	2493	3.1	2
0	2494	3.1	2
0	2495	3.1	2
0	2496	3.1	2
0	2497	3.1	2
0	2498	3.1	2
0	2531	3.15	2
0	2532	3.15	2
0	2533	3.15	2
0	2558	3.2	2
0	2559	3.2	2
0	2560	3.2	2
0	2561	3.2	2
0	2562	3.2	2
0	2563	3.2	2
0	2594	3.25	2
0	2595	3.25	2
0	2596	3.25	2
0	2621	3.3	2
0	2622	3.3	2
0	2623	3.3	2
0	2624	3.3	2
0	2625	3.3	2
0	2626	3.3	2
0	2795	3.35	2
0	2796	3.35	2
0	2797	3.35	2
0	2822	3.4	2
0	2823	3.4	2
0	2824	3.4	2
0	2825	3.4	2
0	2826	3.4	2
0	2827	3.4	2
0	2858	3.45	2
0	2859	3.45	2
0	2860	3.45	2
0	2885	3.5	2
0	2886	3.5	2
0	2887	3.5	2
0	2888	3.5	2
0	2889	3.5	2
0	2890	3.5	2
0	2921	3.55	2
0	2922	3.55	2
0	2923	3.55	2
0	2948	3.6	2
0	2949	3.6	2
0	2950	3.6	2
0	2951	3.6	2
0	2952	3.6	2
0	2953	3.6	2
0	2984	3.65	2
0	2985	3.65	2
0	2986	3.65	2
0	3011	3.7	2
0	3012	3.7	2
0	3013	3.7	2
0	3014	3.7	2
0	3015	3.7	2
0	3016	3.7	2
0	3047	3.75	2
0	3048	3.75	2
0	3049	3.75	2
0	3074	3.8	2
0	3075	3.8	2
0	3076	3.8	2
0	3077	3.8	2
0	3078	3.8	2
0	3079	3.8	2
0	3110	3.85	2
0	3111	3.85	2
0	3112	3.85	2
0	3275	3.9	2
0	3276	3.9	2
0	3277	3.9	2
0	3278	3.9	2
0	3279	3.9	2
0	3280	3.9	2
0	3311	3.95	2
0	3312	3.95	2
0	3313	3.95	2
0	3338	4	2
0	3339	4	2
0	3340	4	2
0	3341	4	2
0	3342	4	2
0	3343	4	2
0	3374	4.05	2
0	3375	4.05	2
0	3376	4.05	2
0	3403	4.1	2
0	3404	4.1	2
0	3405	4.1	2
0	3406	4.1	2
0	3407	4.1	2
0	3408	4.1	2
0	3441	4.15	2
0	3442	4.15	2
0	3443	4.15	2
0	3468	4.2	2
0	3469	4.2	2
0	3470	4.2	2
0	3471	4.2	2
0	3472	4.2	2
0	3473	4.2	2
0	3504	4.25	2
0	3505	4.25	2
0	3506	4.25	2
0	3531	4.3	2
0	3532	4.3	2
0	3533	4.3	2
0	3534	4.3	2
0	3535	4.3	2
0	3536	4.3	2
0	3567	4.35	2
0	3568	4.35	2
0	3569	4.35	2
0	3594	4.4	2
0	3595	4.4	2
0	3596	4.4	2
0	3597	4.4	2
0	3598	4.4	2
0	3599	4.4	2
0	3768	4.45	2
0	3769	4.45	2
0	3770	4.45	2
0	3795	4.5	2
0	3796	4.5	2
0	3797	4.5	2
0	3798	4.5	2
0	3799	4.5	2
0	3800	4.5	2
0	3831	4.55	2
0	3832	4.55	2
0	3833	4.55	2
0	3858	4.6	2
0	3859	4.6	2
0	3860	4.6	2
0	3861	4.6	2
0	3862	4.6	2
0	3863	4.6	2
0	3894	4.65	2
0	3895	4.65	2
0	3896	4.65	2
0	3921	4.7	2
0	3922	4.7	2
0	3923	4.7	2
0	3924	4.7	2
0	3925	4.7	2
0	3926	4.7	2
0	3957	4.75	2
0	3958	4.75	2
0	3959	4.75	2
0	3984	4.8	2
0	3985	4.8	2
0	3986	4.8	2
0	3987	4.8	2
0	3988	4.8	2
0	3989	4.8	2
0	4020	4.85	2
0	4021	4.85	2
0	4022	4.85	2
0	4047	4.9	2
0	4048	4.9	2
0	4049	4.9	2
0	4050	4.9	2
0	4051	4.9	2
0	4052	4.9	2
0	4083	4.95	2
0	4084	4.95	2
0	4085	4.95	2
0	4251	5	2
0	4252	5	2
0	4253	5	2
0	4254	5	2
0	4255	5	2
0	4256	5	2
0	4287	5.05	2
0	4288	5.05	2
0	4289	5.05	2
0	4316	5.1	2
0	4317	5.1	2
0	4318	5.1	2
0	4319	5.1	2
0	4320	5.1	2
0	4321	5.1	2
0	4354	5.15	2
0	4355	5.15	2
0	4356	5.15	2
0	4381	5.2	2
0	4382	5.2	2
0	4383	5.2	2
0	4384	5.2	2
0	4385	5.2	2
0	4386	5.2	2
0	4417	5.25	2
0	4418	5.25	2
0	4419	5.25	2
0	4444	5.3	2
0	4445	5.3	2
0	4446	5.3	2
0	4447	5.3	2
0	4448	5.3	2
0	4449	5.3	2
0	4480	5.35	2
0	4481	5.35	2
0	4482	5.35	2
0	4507	5.4	2
0	4508	5.4	2
0	4509	5.4	2
0	4510	5.4	2
0	4511	5.4	2
0	4512	5.4	2
0	4543	5.45	2
0	4544	5.45	2
0	4545	5.45	2
0	4573	5.5	2
0	4574	5.5	2
0	4575	5.5	2
0	4576	5.5	2
0	4577	5.5	2
0	4578	5.5	2
0	4747	5.55	2
0	4748	5.55	2
0	4749	5.55	2
0	4774	5.6	2
0	4775	5.6	2
0	4776	5.6	2
0	4777	5.6	2
0	4778	5.6	2
0	4779	5.6	2
0	4810	5.65	2
0	4811	5.65	2
0	4812	5.65	2
0	4837	5.7	2
0	4838	5.7	2
0	4839	5.7	2
0	4840	5.7	2
0	4841	5.7	2
0	4842	5.7	2
0	4873	5.75	2
0	4874	5.75	2
0	4875	5.75	2
0	4900	5.8	2
0	4901	5.8	2
0	4902	5.8	2
0	4903	5.8	2
0	4904	5.8	2
0	4905	5.8	2
0	4936	5.85	2
0	4937	5.85	2
0	4938	5.85	2
0	4963	5.9	2
0	4964	5.9	2
0	4965	5.9	2
0	4966	5.9	2
0	4967	5.9	2
0	4968	5.9	2
0	4999	5.95	2
0	5000	5.95	2
0	5001	5.95	2
0	5029	6	2
0	5030	6	2
0	5031	6	2
0	5032	6	2
0	5033	6	2
0	5034	6	2
0	5065	6.05	2
0	5066	6.05	2
0	5067	6.05	2
0	5232	6.1	2
0	5233	6.1	2
0	5234	6.1	2
0	5235	6.1	2
0	5236	6.1	2
0	5237	6.1	2
0	5271	6.15	2
0	5272	6.15	2
0	5273	6.15	2
0	5298	6.2	2
0	5299	6.2	2
0	5300	6.2	2
0	5301	6.2	2
0	5302	6.2	2
0	5303	6.2	2
0	5334	6.25	2
0	5335	6.25	2
0	5336	6.25	2
0	5361	6.3	2
0	5362	6.3	2
0	5363	6.3	2
0	5364	6.3	2
0	5365	6.3	2
0	5366	6.3	2
0	5397	6.35	2
0	5398	6.35	2
0	5399	6.35	2
0	5424	6.4	2
0	5425	6.4	2
0	5426	6.4	2
0	5427	6.4	2
0	5428	6.4	2
0	5429	6.4	2
0	5460	6.45	2
0	5461	6.45	2
0	5462	6.45	2
0	5490	6.5	2
0	5491	6.5	2
0	5492	6.5	2
0	5493	6.5	2
0	5494	6.5	2
0	5495	6.5	2
0	5526	6.55	2
0	5527	6.55	2
0	5528	6.55	2
0	5553	6.6	2
0	5554	6.6	2
0	5555	6.6	2
0	5556	6.6	2
0	5557	6.6	2
0	5558	6.6	2
0	5741	6.65	2
0	5742	6.65	2
0	5743	6.65	2
0	5844	6.7	2
0	5845	6.7	2
0	5846	6.7	2
0	5847	6.7	2
0	5848	6.7	2
0	5849	6.7	2
0	5937	6.75	2
0	5938	6.75	2
0	5939	6.75	2
0	5964	6.8	2
0	5965	6.8	2
0	5966	6.8	2
0	5967	6.8	2
0	5968	6.8	2
0	5969	6.8	2
0	6000	6.85	2
0	6001	6.85	2
0	6002	6.85	2
0	6027	6.9	2
0	6028	6.9	2
0	6029	6.9	2
0	6030	6.9	2
0	6031	6.9	2
0	6032	6.9	2
0	6063	6.95	2
0	6064	6.95	2
0	6065	6.95	2
0	6091	7	2
0	6092	7	2
0	6093	7	2
0	6094	7	2
0	6095	7	2
0	6096	7	2
0	6127	7.05	2
0	6128	7.05	2
0	6129	7.05	2
0	6156	7.1	2
0	6157	7.1	2
0	6158	7.1	2
0	6159	7.1	2
0	6160	7.1	2
0	6161	7.1	2
0	6195	7.15	2
0	6196	7.15	2
0	6197	7.15	2
0	6362	7.2	2
0	6363	7.2	2
0	6364	7.2	2
0	6365	7.2	2
0	6366	7.2	2
0	6367	7.2	2
0	6417	7.25	2
0	6418	7.25	2
0	6419	7.25	2
0	6444	7.3	2
0	6445	7.3	2
0	6446	7.3	2
0	6447	7.3	2
0	6448	7.3	2
0	6449	7.3	2
0	6480	7.35	2
0	6481	7.35	2
0	6482	7.35	2
0	6507	7.4	2
0	6508	7.4	2
0	6509	7.4	2
0	6510	7.4	2
0	6511	7.4	2
0	6512	7.4	2
0	6543	7.45	2
0	6544	7.45	2
0	6545	7.45	2
0	6570	7.5	2
0	6571	7.5	2
0	6572	7.5	2
0	6573	7.5	2
0	6574	7.5	2
0	6575	7.5	2
0	6606	7.55	2
0	6607	7.55	2
0	6608	7.55	2
0	6633	7.6	2
0	6634	7.6	2
0	6635	7.6	2
0	6636	7.6	2
0	6637	7.6	2
0	6638	7.6	2
0	6669	7.65	2
0	6670	7.65	2
0	6671	7.65	2
0	6696	7.7	2
0	6697	7.7	2
0	6698	7.7	2
0	6699	7.7	2
0	6700	7.7	2
0	6701	7.7	2
0	6870	7.75	2
0	6871	7.75	2
0	6872	7.75	2
0	6897	7.8	2
0	6898	7.8	2
0	6899	7.8	2
0	6900	7.8	2
0	6901	7.8	2
0	6902	7.8	2
0	6933	7.85	2
0	6934	7.85	2
0	6935	7.85	2
0	6960	7.9	2
0	6961	7.9	2
0	6962	7.9	2
0	6963	7.9	2
0	6964	7.9	2
0	6965	7.9	2
0	6996	7.95	2
0	6997	7.95	2
0	6998	7.95	2
0	7023	8	2
0	7024	8	2
0	7025	8	2
0	7026	8	2
0	7027	8	2
0	7028	8	2
0	7059	8.05	2
0	7060	8.05	2
0	7061	8.05	2
0	7088	8.1	2
0	7089	8.1	2
0	7090	8.1	2
0	7091	8.1	2
0	7092	8.1	2
0	7093	8.1	2
0	7127	8.15	2
0	7128	8.15	2
0	7129	8.15	2
0	7154	8.2	2
0	7155	8.2	2
0	7156	8.2	2
0	7157	8.2	2
0	7158	8.2	2
0	7159	8.2	2
0	7190	8.25	2
0	7191	8.25	2
0	7192	8.25	2
0	7357	8.3	2
0	7358	8.3	2
0	7359	8.3	2
0	7360	8.3	2
0	7361	8.3	2
0	7362	8.3	2
0	7412	8.35	2
0	7413	8.35	2
0	7414	8.35	2
0	7439	8.4	2
0	7440	8.4	2
0	7441	8.4	2
0	7442	8.4	2
0	7443	8.4	2
0	7444	8.4	2
0	7475	8.45	2
0	7476	8.45	2
0	7477	8.45	2
0	7502	8.5	2
0	7503	8.5	2
0	7504	8.5	2
0	7505	8.5	2
0	7506	8.5	2
0	7507	8.5	2
0	7538	8.55	2
0	7539	8.55	2
0	7540	8.55	2
0	7565	8.6	2
0	7566	8.6	2
0	7567	8.6	2
0	7568	8.6	2
0	7569	8.6	2
0	7570	8.6	2
0	7601	8.65	2
0	7602	8.65	2
0	7603	8.65	2
0	7628	8.7	2
0	7629	8.7	2
0	7630	8.7	2
0	7631	8.7	2
0	7632	8.7	2
0	7633	8.7	2
0	7664	8.75	2
0	7665	8.75	2
0	7666	8.75	2
0	7691	8.8	2
0	7692	8.8	2
0	7693	8.8	2
0	7694	8.8	2
0	7695	8.8	2
0	7696	8.8	2
0	7865	8.85	2
0	7866	8.85	2
0	7867	8.85	2
0	7892	8.9	2
0	7893	8.9	2
0	7894	8.9	2
0	7895	8.9	2
0	7896	8.9	2
0	7897	8.9	2
0	7928	8.95	2
0	7929	8.95	2
0	7930	8.95	2
0	7955	9	2
0	7956	9	2
0	7957	9	2
0	7958	9	2
0	7959	9	2
0	7960	9	2
0	7991	9.05	2
0	7992	9.05	2
0	7993	9.05	2
0	8020	9.1	2
0	8021	9.1	2
0	8022	9.1	2
0	8023	9.1	2
0	8024	9.1	2
0	8025	9.1	2
0	8059	9.15	2
0	8060	9.15	2
0	8061	9.15	2
0	8086	9.2	2
0	8087	9.2	2
0	8088	9.2	2
0	8089	9.2	2
0	8090	9.2	2
0	8091	9.2	2
0	8122	9.25	2
0	8123	9.25	2
0	8124	9.25	2
0	8149	9.3	2
0	8150	9.3	2
0	8151	9.3	2
0	8152	9.3	2
0	8153	9.3	2
0	8154	9.3	2
0	8185	9.35	2
0	8186	9.35	2
0	8187	9.35	2
0	8352	9.4	2
0	8353	9.4	2
0	8354	9.4	2
0	8355	9.4	2
0	8356	9.4	2
0	8357	9.4	2
0	8407	9.45	2
0	8408	9.45	2
0	8409	9.45	2
0	8434	9.5	2
0	8435	9.5	2
0	8436	9.5	2
0	8437	9.5	2
0	8438	9.5	2
0	8439	9.5	2
0	8470	9.55	2
0	8471	9.55	2
0	8472	9.55	2
0	8497	9.6	2
0	8498	9.6	2
0	8499	9.6	2
0	8500	9.6	2
0	8501	9.6	2
0	8502	9.6	2
0	8533	9.65	2
0	8534	9.65	2
0	8535	9.65	2
0	8560	9.7	2
0	8561	9.7	2
0	8562	9.7	2
0	8563	9.7	2
0	8564	9.7	2
0	8565	9.7	2
0	8596	9.75	2
0	8597	9.75	2
0	8598	9.75	2
0	8623	9.8	2
0	8624	9.8	2
0	8625	9.8	2
0	8626	9.8	2
0	8627	9.8	2
0	8628	9.8	2
0	8659	9.85	2
0	8660	9.85	2
0	8661	9.85	2
0	8686	9.9	2
0	8687	9.9	2
0	8688	9.9	2
0	8689	9.9	2
0	8690	9.9	2
0	8691	9.9	2
0	8860	9.95	2
0	8861	9.95	2
0	8862	9.95	2
0	8887	10	2
0	8888	10	2
0	8889	10	2
0	8890	10	2
0	8891	10	2
0	8892	10	2
0	8923	10.05	2
0	8924	10.05	2
0	8925	10.05	2
0	8952	10.1	2
0	8953	10.1	2
0	8954	10.1	2
0	8955	10.1	2
0	8956	10.1	2
0	8957	10.1	2
0	8991	10.15	2
0	8992	10.15	2
0	8993	10.15	2
0	9018	10.2	2
0	9019	10.2	2
0	9020	10.2	2
0	9021	10.2	2
0	9022	10.2	2
0	9023	10.2	2
0	9054	10.25	2
0	9055	10.25	2
0	9056	10.25	2
0	9081	10.3	2
0	9082	10.3	2
0	9083	10.3	2
0	9084	10.3	2
0	9085	10.3	2
0	9086	10.3	2
0	9117	10.35	2
0	9118	10.35	2
0	9119	10.35	2
0	9144	10.4	2
0	9145	10.4	2
0	9146	10.4	2
0	9147	10.4	2
0	9148	10.4	2
0	9149	10.4	2
0	9180	10.45	2
0	9181	10.45	2
0	9182	10.45	2
0	9347	10.5	2
0	9348	10.5	2
0	9349	10.5	2
0	9350	10.5	2
0	9351	10.5	2
0	9352	10.5	2
0	9402	10.55	2
0	9403	10.55	2
0	9404	10.55	2
0	9429	10.6	2
0	9430	10.6	2
0	9431	10.6	2
0	9432	10.6	2
0	9433	10.6	2
0	9434	10.6	2
0	9465	10.65	2
0	9466	10.65	2
0	9467	10.65	2
0	9492	10.7	2
0	9493	10.7	2
0	9494	10.7	2
0	9495	10.7	2
0	9496	10.7	2
0	9497	10.7	2
0	9528	10.75	2
0	9529	10.75	2
0	9530	10.75	2
0	9555	10.8	2
0	9556	10.8	2
0	9557	10.8	2
0	9558	10.8	2
0	9559	10.8	2
0	9560	10.8	2
0	9591	10.85	2
0	9592	10.85	2
0	9593	10.85	2
0	9618	10.9	2
0	9619	10.9	2
0	9620	10.9	2
0	9621	10.9	2
0	9622	10.9	2
0	9623	10.9	2
0	9654	10.95	2
0	9655	10.95	2
0	9656	10.95	2
0	9681	11	2
0	9682	11	2
0	9683	11	2
0	9684	11	2
0	9685	11	2
0	9686	11	2
0	9855	11.05	2
0	9856	11.05	2
0	9857	11.05	2
0	9884	11.1	2
0	9885	11.1	2
0	9886	11.1	2
0	9887	11.1	2
0	9888	11.1	2
0	9889	11.1	2
0	9923	11.15	2
0	9924	11.15	2
0	9925	11.15	2
0	9950	11.2	2
0	9951	11.2	2
0	9952	11.2	2
0	9953	11.2	2
0	9954	11.2	2
0	9955	11.2	2
0	9986	11.25	2
0	9987	11.25	2
0	9988	11.25	2
0	10013	11.3	2
0	10014	11.3	2
0	10015	11.3	2
0	10016	11.3	2
0	10017	11.3	2
0	10018	11.3	2
0	10049	11.35	2
0	10050	11.35	2
0	10051	11.35	2
0	10076	11.4	2
0	10077	11.4	2
0	10078	11.4	2
0	10079	11.4	2
0	10080	11.4	2
0	10081	11.4	2
0	10112	11.45	2
0	10113	11.45	2
0	10114	11.45	2
0	10141	11.5	2
0	10142	11.5	2
0	10143	11.5	2
0	10144	11.5	2
0	10145	11.5	2
0	10146	11.5	2
0	10177	11.55	2
0	10178	11.55	2
0	10179	11.55	2
0	10344	11.6	2
0	10345	11.6	2
0	10346	11.6	2
0	10347	11.6	2
0	10348	11.6	2
0	10349	11.6	2
0	10399	11.65	2
0	10400	11.65	2
0	10401	11.65	2
0	10426	11.7	2
0	10427	11.7	2
0	10428	11.7	2
0	10429	11.7	2
0	10430	11.7	2
0	10431	11.7	2
0	10462	11.75	2
0	10463	11.75	2
0	10464	11.75	2
0	10489	11.8	2
0	10490	11.8	2
0	10491	11.8	2
0	10492	11.8	2
0	10493	11.8	2
0	10494	11.8	2
0	10525	11.85	2
0	10526	11.85	2
0	10527	11.85	2
0	10552	11.9	2
0	10553	11.9	2
0	10554	11.9	2
0	10555	11.9	2
0	10556	11.9	2
0	10557	11.9	2
0	10588	11.95	2
0	10589	11.95	2
0	10590	11.95	2
0	10616	12	2
0	10617	12	2
0	10618	12	2
0	10619	12	2
0	10620	12	2
0	10621	12	2
0	10652	12.05	2
0	10653	12.05	2
0	10654	12.05	2
0	10681	12.1	2
0	10682	12.1	2
0	10683	12.1	2
0	10684	12.1	2
0	10685	12.1	2
0	10686	12.1	2
0	10860	12.15	2
0	10861	12.15	2
0	10862	12.15	2
0	10906	12.2	2
0	10907	12.2	2
0	10908	12.2	2
0	10909	12.2	2
0	10910	12.2	2
0	10911	12.2	2
0	10942	12.25	2
0	10943	12.25	2
0	10944	12.25	2
0	10969	12.3	2
0	10970	12.3	2
0	10971	12.3	2
0	10972	12.3	2
0	10973	12.3	2
0	10974	12.3	2
0	11005	12.35	2
0	11006	12.35	2
0	11007	12.35	2
0	11032	12.4	2
0	11033	12.4	2
0	11034	12.4	2
0	11035	12.4	2
0	11036	12.4	2
0	11037	12.4	2
0	11068	12.45	2
0	11069	12.45	2
0	11070	12.45	2
0	11095	12.5	2
0	11096	12.5	2
0	11097	12.5	2
0	11098	12.5	2
0	11099	12.5	2
0	11100	12.5	2
0	11131	12.55	2
0	11132	12.55	2
0	11133	12.55	2
0	11158	12.6	2
0	11159	12.6	2
0	11160	12.6	2
0	11161	12.6	2
0	11162	12.6	2
0	11163	12.6	2
0	11194	12.65	2
0	11195	12.65	2
0	11196	12.65	2
0	11359	12.7	2
0	11360	12.7	2
0	11361	12.7	2
0	11362	12.7	2
0	11363	12.7	2
0	11364	12.7	2
0	11395	12.75	2
0	11396	12.75	2
0	11397	12.75	2
0	11422	12.8	2
0	11423	12.8	2
0	11424	12.8	2
0	11425	12.8	2
0	11426	12.8	2
0	11427	12.8	2
0	11458	12.85	2
0	11459	12.85	2
0	11460	12.85	2
0	11485	12.9	2
0	11486	12.9	2
0	11487	12.9	2
0	11488	12.9	2
0	11489	12.9	2
0	11490	12.9	2
0	11521	12.95	2
0	11522	12.95	2
0	11523	12.95	2
0	11548	13	2
0	11549	13	2
0	11550	13	2
0	11551	13	2
0	11552	13	2
0	11553	13	2
0	11584	13.05	2
0	11585	13.05	2
0	11586	13.05	2
0	11613	13.1	2
0	11614	13.1	2
0	11615	13.1	2
0	11616	13.1	2
0	11617	13.1	2
0	11618	13.1	2
0	11652	13.15	2
0	11653	13.15	2
0	11654	13.15	2
0	11679	13.2	2
0	11680	13.2	2
0	11681	13.2	2
0	11682	13.2	2
0	11683	13.2	2
0	11684	13.2	2
0	11855	13.25	2
0	11856	13.25	2
0	11857	13.25	2
0	11901	13.3	2
0	11902	13.3	2
0	11903	13.3	2
0	11904	13.3	2
0	11905	13.3	2
0	11906	13.3	2
0	11937	13.35	2
0	11938	13.35	2
0	11939	13.35	2
0	11964	13.4	2
0	11965	13.4	2
0	11966	13.4	2
0	11967	13.4	2
0	11968	13.4	2
0	11969	13.4	2
0	12000	13.45	2
0	12001	13.45	2
0	12002	13.45	2
0	12027	13.5	2
0	12028	13.5	2
0	12029	13.5	2
0	12030	13.5	2
0	12031	13.5	2
0	12032	13.5	2
0	12063	13.55	2
0	12064	13.55	2
0	12065	13.55	2
0	12090	13.6	2
0	12091	13.6	2
0	12092	13.6	2
0	12093	13.6	2
0	12094	13.6	2
0	12095	13.6	2
0	12126	13.65	2
0	12127	13.65	2
0	12128	13.65	2
0	12153	13.7	2
0	12154	13.7	2
0	12155	13.7	2
0	12156	13.7	2
0	12157	13.7	2
0	12158	13.7	2
0	12189	13.75	2
0	12190	13.75	2
0	12191	13.75	2
0	12354	13.8	2
0	12355	13.8	2
0	12356	13.8	2
0	12357	13.8	2
0	12358	13.8	2
0	12359	13.8	2
0	12390	13.85	2
0	12391	13.85	2
0	12392	13.85	2
0	12417	13.9	2
0	12418	13.9	2
0	12419	13.9	2
0	12420	13.9	2
0	12421	13.9	2
0	12422	13.9	2
0	12453	13.95	2
0	12454	13.95	2
0	12455	13.95	2
0	12480	14	2
0	12481	14	2
0	12482	14	2
0	12483	14	2
0	12484	14	2
0	12485	14	2
0	12516	14.05	2
0	12517	14.05	2
0	12518	14.05	2
0	12545	14.1	2
0	12546	14.1	2
0	12547	14.1	2
0	12548	14.1	2
0	12549	14.1	2
0	12550	14.1	2
0	12584	14.15	2
0	12585	14.15	2
0	12586	14.15	2
0	12611	14.2	2
0	12612	14.2	2
0	12613	14.2	2
0	12614	14.2	2
0	12615	14.2	2
0	12616	14.2	2
0	12647	14.25	2
0	12648	14.25	2
0	12649	14.25	2
0	12674	14.3	2
0	12675	14.3	2
0	12676	14.3	2
0	12677	14.3	2
0	12678	14.3	2
0	12679	14.3	2
0	12850	14.35	2
0	12851	14.35	2
0	12852	14.35	2
0	12896	14.4	2
0	12897	14.4	2
0	12898	14.4	2
0	12899	14.4	2
0	12900	14.4	2
0	12901	14.4	2
0	12932	14.45	2
0	12933	14.45	2
0	12934	14.45	2
0	12959	14.5	2
0	12960	14.5	2
0	12961	14.5	2
0	12962	14.5	2
0	12963	14.5	2
0	12964	14.5	2
0	12995	14.55	2
0	12996	14.55	2
0	12997	14.55	2
0	13022	14.6	2
0	13023	14.6	2
0	13024	14.6	2
0	13025	14.6	2
0	13026	14.6	2
0	13027	14.6	2
0	13058	14.65	2
0	13059	14.65	2
0	13060	14.65	2
0	13085	14.7	2
0	13086	14.7	2
0	13087	14.7	2
0	13088	14.7	2
0	13089	14.7	2
0	13090	14.7	2
0	13121	14.75	2
0	13122	14.75	2
0	13123	14.75	2
0	13148	14.8	2
0	13149	14.8	2
0	13150	14.8	2
0	13151	14.8	2
0	13152	14.8	2
0	13153	14.8	2
0	13184	14.85	2
0	13185	14.85	2
0	13186	14.85	2
0	13349	14.9	2
0	13350	14.9	2
0	13351	14.9	2
0	13352	14.9	2
0	13353	14.9	2
0	13354	14.9	2
0	13385	14.95	2
0	13386	14.95	2
0	13387	14.95	2
0	13412	15	2
0	13413	15	2
0	13414	15	2
0	13415	15	2
0	13416	15	2
0	13417	15	2
0	13448	15.05	2
0	13449	15.05	2
0	13450	15.05	2
0	13477	15.1	2
0	13478	15.1	2
0	13479	15.1	2
0	13480	15.1	2
0	13481	15.1	2
0	13482	15.1	2
0	13516	15.15	2
0	13517	15.15	2
0	13518	15.15	2
0	13543	15.2	2
0	13544	15.2	2
0	13545	15.2	2
0	13546	15.2	2
0	13547	15.2	2
0	13548	15.2	2
0	13579	15.25	2
0	13580	15.25	2
0	13581	15.25	2
0	13606	15.3	2
0	13607	15.3	2
0	13608	15.3	2
0	13609	15.3	2
0	13610	15.3	2
0	13611	15.3	2
0	13642	15.35	2
0	13643	15.35	2
0	13644	15.35	2
0	13669	15.4	2
0	13670	15.4	2
0	13671	15.4	2
0	13672	15.4	2
0	13673	15.4	2
0	13674	15.4	2
0	13845	15.45	2
0	13846	15.45	2
0	13847	15.45	2
0	13891	15.5	2
0	13892	15.5	2
0	13893	15.5	2
0	13894	15.5	2
0	13895	15.5	2
0	13896	15.5	2
0	13927	15.55	2
0	13928	15.55	2
0	13929	15.55	2
0	13954	15.6	2
0	13955	15.6	2
0	13956	15.6	2
0	13957	15.6	2
0	13958	15.6	2
0	13959	15.6	2
0	13990	15.65	2
0	13991	15.65	2
0	13992	15.65	2
0	14017	15.7	2
0	14018	15.7	2
0	14019	15.7	2
0	14020	15.7	2
0	14021	15.7	2
0	14022	15.7	2
0	14053	15.75	2
0	14054	15.75	2
0	14055	15.75	2
0	14080	15.8	2
0	14081	15.8	2
0	14082	15.8	2
0	14083	15.8	2
0	14084	15.8	2
0	14085	15.8	2
0	14116	15.85	2
0	14117	15.85	2
0	14118	15.85	2
0	14143	15.9	2
0	14144	15.9	2
0	14145	15.9	2
0	14146	15.9	2
0	14147	15.9	2
0	14148	15.9	2
0	14179	15.95	2
0	14180	15.95	2
0	14181	15.95	2
0	14344	16	2
0	14345	16	2
0	14346	16	2
0	14347	16	2
0	14348	16	2
0	14349	16	2
0	14380	16.05	2
0	14381	16.05	2
0	14382	16.05	2
0	14409	16.1	2
0	14410	16.1	2
0	14411	16.1	2
0	14412	16.1	2
0	14413	16.1	2
0	14414	16.1	2
0	14448	16.15	2
0	14449	16.15	2
0	14450	16.15	2
0	14475	16.2	2
0	14476	16.2	2
0	14477	16.2	2
0	14478	16.2	2
0	14479	16.2	2
0	14480	16.2	2
0	14511	16.25	2
0	14512	16.25	2
0	14513	16.25	2
0	14538	16.3	2
0	14539	16.3	2
0	14540	16.3	2
0	14541	16.3	2
0	14542	16.3	2
0	14543	16.3	2
0	14574	16.35	2
0	14575	16.35	2
0	14576	16.35	2
0	14601	16.4	2
0	14602	16.4	2
0	14603	16.4	2
0	14604	16.4	2
0	14605	16.4	2
0	14606	16.4	2
0	14637	16.45	2
0	14638	16.45	2
0	14639	16.45	2
0	14666	16.5	2
0	14667	16.5	2
0	14668	16.5	2
0	14669	16.5	2
0	14670	16.5	2
0	14671	16.5	2
0	14842	16.55	2
0	14843	16.55	2
0	14844	16.55	2
0	14888	16.6	2
0	14889	16.6	2
0	14890	16.6	2
0	14891	16.6	2
0	14892	16.6	2
0	14893	16.6	2
0	14924	16.65	2
0	14925	16.65	2
0	14926	16.65	2
0	14951	16.7	2
0	14952	16.7	2
0	14953	16.7	2
0	14954	16.7	2
0	14955	16.7	2
0	14956	16.7	2
0	14987	16.75	2
0	14988	16.75	2
0	14989	16.75	2
0	15014	16.8	2
0	15015	16.8	2
0	15016	16.8	2
0	15017	16.8	2
0	15018	16.8	2
0	15019	16.8	2
0	15050	16.85	2
0	15051	16.85	2
0	15052	16.85	2
0	15077	16.9	2
0	15078	16.9	2
0	15079	16.9	2
0	15080	16.9	2
0	15081	16.9	2
0	15082	16.9	2
0	15113	16.95	2
0	15114	16.95	2
0	15115	16.95	2
0	15141	17	2
0	15142	17	2
0	15143	17	2
0	15144	17	2
0	15145	17	2
0	15146	17	2
0	15177	17.05	2
0	15178	17.05	2
0	15179	17.05	2
0	15344	17.1	2
0	15345	17.1	2
0	15346	17.1	2
0	15347	17.1	2
0	15348	17.1	2
0	15349	17.1	2
0	15383	17.15	2
0	15384	17.15	2
0	15385	17.15	2
0	15410	17.2	2
0	15411	17.2	2
0	15412	17.2	2
0	15413	17.2	2
0	15414	17.2	2
0	15415	17.2	2
0	15446	17.25	2
0	15447	17.25	2
0	15448	17.25	2
0	15473	17.3	2
0	15474	17.3	2
0	15475	17.3	2
0	15476	17.3	2
0	15477	17.3	2
0	15478	17.3	2
0	15509	17.35	2
0	15510	17.35	2
0	15511	17.35	2
0	15536	17.4	2
0	15537	17.4	2
0	15538	17.4	2
0	15539	17.4	2
0	15540	17.4	2
0	15541	17.4	2
0	15572	17.45	2
0	15573	17.45	2
0	15574	17.45	2
0	15599	17.5	2
0	15600	17.5	2
0	15601	17.5	2
0	15602	17.5	2
0	15603	17.5	2
0	15604	17.5	2
0	15635	17.55	2
0	15636	17.55	2
0	15637	17.55	2
0	15662	17.6	2
0	15663	17.6	2
0	15664	17.6	2
0	15665	17.6	2
0	15666	17.6	2
0	15667	17.6	2
0	15838	17.65	2
0	15839	17.65	2
0	15840	17.65	2
0	15884	17.7	2
0	15885	17.7	2
0	15886	17.7	2
0	15887	17.7	2
0	15888	17.7	2
0	15889	17.7	2
0	15920	17.75	2
0	15921	17.75	2
0	15922	17.75	2
0	15947	17.8	2
0	15948	17.8	2
0	15949	17.8	2
0	15950	17.8	2
0	15951	17.8	2
0	15952	17.8	2
0	15983	17.85	2
0	15984	17.85	2
0	15985	17.85	2
0	16010	17.9	2
0	16011	17.9	2
0	16012	17.9	2
0	16013	17.9	2
0	16014	17.9	2
0	16015	17.9	2
0	16046	17.95	2
0	16047	17.95	2
0	16048	17.95	2
0	16073	18	2
0	16074	18	2
0	16075	18	2
0	16076	18	2
0	16077	18	2
0	16078	18	2
0	16109	18.05	2
0	16110	18.05	2
0	16111	18.05	2
0	16138	18.1	2
0	16139	18.1	2
0	16140	18.1	2
0	16141	18.1	2
0	16142	18.1	2
0	16143	18.1	2
0	16177	18.15	2
0	16178	18.15	2
0	16179	18.15	2
0	16344	18.2	2
0	16345	18.2	2
0	16346	18.2	2
0	16347	18.2	2
0	16348	18.2	2
0	16349	18.2	2
0	16399	18.25	2
0	16400	18.25	2
0	16401	18.25	2
0	16426	18.3	2
0	16427	18.3	2
0	16428	18.3	2
0	16429	18.3	2
0	16430	18.3	2
0	16431	18.3	2
0	16462	18.35	2
0	16463	18.35	2
0	16464	18.35	2
0	16489	18.4	2
0	16490	18.4	2
0	16491	18.4	2
0	16492	18.4	2
0	16493	18.4	2
0	16494	18.4	2
0	16525	18.45	2
0	16526	18.45	2
0	16527	18.45	2
0	16552	18.5	2
0	16553	18.5	2
0	16554	18.5	2
0	16555	18.5	2
0	16556	18.5	2
0	16557	18.5	2
0	16588	18.55	2
0	16589	18.55	2
0	16590	18.55	2
0	16615	18.6	2
0	16616	18.6	2
0	16617	18.6	2
0	16618	18.6	2
0	16619	18.6	2
0	16620	18.6	2
0	16651	18.65	2
0	16652	18.65	2
0	16653	18.65	2
0	16678	18.7	2
0	16679	18.7	2
0	16680	18.7	2
0	16681	18.7	2
0	16682	18.7	2
0	16683	18.7	2
0	16852	18.75	2
0	16853	18.75	2
0	16854	18.75	2
0	16879	18.8	2
0	16880	18.8	2
0	16881	18.8	2
0	16882	18.8	2
0	16883	18.8	2
0	16884	18.8	2
0	16915	18.85	2
0	16916	18.85	2
0	16917	18.85	2
0	16942	18.9	2
0	16943	18.9	2
0	16944	18.9	2
0	16945	18.9	2
0	16946	18.9	2
0	16947	18.9	2
0	16978	18.95	2
0	16979	18.95	2
0	16980	18.95	2
0	17005	19	2
0	17006	19	2
0	17007	19	2
0	17008	19	2
0	17009	19	2
0	17010	19	2
0	17041	19.05	2
0	17042	19.05	2
0	17043	19.05	2
0	17070	19.1	2
0	17071	19.1	2
0	17072	19.1	2
0	17073	19.1	2
0	17074	19.1	2
0	17075	19.1	2
0	17109	19.15	2
0	17110	19.15	2
0	17111	19.15	2
0	17136	19.2	2
0	17137	19.2	2
0	17138	19.2	2
0	17139	19.2	2
0	17140	19.2	2
0	17141	19.2	2
0	17172	19.25	2
0	17173	19.25	2
0	17174	19.25	2
0	17339	19.3	2
0	17340	19.3	2
0	17341	19.3	2
0	17342	19.3	2
0	17343	19.3	2
0	17344	19.3	2
0	17394	19.35	2
0	17395	19.35	2
0	17396	19.35	2
0	17421	19.4	2
0	17422	19.4	2
0	17423	19.4	2
0	17424	19.4	2
0	17425	19.4	2
0	17426	19.4	2
0	17457	19.45	2
0	17458	19.45	2
0	17459	19.45	2
0	17484	19.5	2
0	17485	19.5	2
0	17486	19.5	2
0	17487	19.5	2
0	17488	19.5	2
0	17489	19.5	2
0	17520	19.55	2
0	17521	19.55	2
0	17522	19.55	2
0	17547	19.6	2
0	17548	19.6	2
0	17549	19.6	2
0	17550	19.6	2
0	17551	19.6	2
0	17552	19.6	2
0	17583	19.65	2
0	17584	19.65	2
0	17585	19.65	2
0	17610	19.7	2
0	17611	19.7	2
0	17612	19.7	2
0	17613	19.7	2
0	17614	19.7	2
0	17615	19.7	2
0	17646	19.75	2
0	17647	19.75	2
0	17648	19.75	2
0	17673	19.8	2
0	17674	19.8	2
0	17675	19.8	2
0	17676	19.8	2
0	17677	19.8	2
0	17678	19.8	2
0	17847	19.85	2
0	17848	19.85	2
0	17849	19.85	2
0	17874	19.9	2
0	17875	19.9	2
0	17876	19.9	2
0	17877	19.9	2
0	17878	19.9	2
0	17879	19.9	2
0	17910	19.95	2
0	17911	19.95	2
0	17912	19.95	2
0	17937	20	2
0	17938	20	2
0	17939	20	2
0	17940	20	2
0	17941	20	2
0	17942	20	2
0	17973	20.05	2
0	17974	20.05	2
0	17975	20.05	2
0	18002	20.1	2
0	18003	20.1	2
0	18004	20.1	2
0	18005	20.1	2
0	18006	20.1	2
0	18007	20.1	2
0	18041	20.15	2
0	18042	20.15	2
0	18043	20.15	2
0	18068	20.2	2
0	18069	20.2	2
0	18070	20.2	2
0	18071	20.2	2
0	18072	20.2	2
0	18073	20.2	2
0	18104	20.25	2
0	18105	20.25	2
0	18106	20.25	2
0	18131	20.3	2
0	18132	20.3	2
0	18133	20.3	2
0	18134	20.3	2
0	18135	20.3	2
0	18136	20.3	2
0	18167	20.35	2
0	18168	20.35	2
0	18169	20.35	2
0	18334	20.4	2
0	18335	20.4	2
0	18336	20.4	2
0	18337	20.4	2
0	18338	20.4	2
0	18339	20.4	2
0	18389	20.45	2
0	18390	20.45	2
0	18391	20.45	2
0	18416	20.5	2
0	18417	20.5	2
0	18418	20.5	2
0	18419	20.5	2
0	18420	20.5	2
0	18421	20.5	2
0	18452	20.55	2
0	18453	20.55	2
0	18454	20.55	2
0	18479	20.6	2
0	18480	20.6	2
0	18481	20.6	2
0	18482	20.6	2
0	18483	20.6	2
0	18484	20.6	2
0	18515	20.65	2
0	18516	20.65	2
0	18517	20.65	2
0	18542	20.7	2
0	18543	20.7	2
0	18544	20.7	2
0	18545	20.7	2
0	18546	20.7	2
0	18547	20.7	2
0	18578	20.75	2
0	18579	20.75	2
0	18580	20.75	2
0	18605	20.8	2
0	18606	20.8	2
0	18607	20.8	2
0	18608	20.8	2
0	18609	20.8	2
0	18610	20.8	2
0	18641	20.85	2
0	18642	20.85	2
0	18643	20.85	2
0	18668	20.9	2
0	18669	20.9	2
0	18670	20.9	2
0	18671	20.9	2
0	18672	20.9	2
0	18673	20.9	2
0	18842	20.95	2
0	18843	20.95	2
0	18844	20.95	2
0	18869	21	2
0	18870	21	2
0	18871	21	2
0	18872	21	2
0	18873	21	2
0	18874	21	2
0	18905	21.05	2
0	18906	21.05	2
0	18907	21.05	2
0	18934	21.1	2
0	18935	21.1	2
0	18936	21.1	2
0	18937	21.1	2
0	18938	21.1	2
0	18939	21.1	2
0	18973	21.15	2
0	18974	21.15	2
0	18975	21.15	2
0	19000	21.2	2
0	19001	21.2	2
0	19002	21.2	2
0	19003	21.2	2
0	19004	21.2	2
0	19005	21.2	2
0	19036	21.25	2
0	19037	21.25	2
0	19038	21.25	2
0	19063	21.3	2
0	19064	21.3	2
0	19065	21.3	2
0	19066	21.3	2
0	19067	21.3	2
0	19068	21.3	2
0	19099	21.35	2
0	19100	21.35	2
0	19101	21.35	2
0	19126	21.4	2
0	19127	21.4	2
0	19128	21.4	2
0	19129	21.4	2
0	19130	21.4	2
0	19131	21.4	2
0	19162	21.45	2
0	19163	21.45	2
0	19164	21.45	2
0	19331	21.5	2
0	19332	21.5	2
0	19333	21.5	2
0	19334	21.5	2
0	19335	21.5	2
0	19336	21.5	2
0	19386	21.55	2
0	19387	21.55	2
0	19388	21.55	2
0	19413	21.6	2
0	19414	21.6	2
0	19415	21.6	2
0	19416	21.6	2
0	19417	21.6	2
0	19418	21.6	2
0	19449	21.65	2
0	19450	21.65	2
0	19451	21.65	2
0	19476	21.7	2
0	19477	21.7	2
0	19478	21.7	2
0	19479	21.7	2
0	19480	21.7	2
0	19481	21.7	2
0	19512	21.75	2
0	19513	21.75	2
0	19514	21.75	2
0	19539	21.8	2
0	19540	21.8	2
0	19541	21.8	2
0	19542	21.8	2
0	19543	21.8	2
0	19544	21.8	2
0	19575	21.85	2
0	19576	21.85	2
0	19577	21.85	2
0	19602	21.9	2
0	19603	21.9	2
0	19604	21.9	2
0	19605	21.9	2
0	19606	21.9	2
0	19607	21.9	2
0	19638	21.95	2
0	19639	21.95	2
0	19640	21.95	2
0	19666	22	2
0	19667	22	2
0	19668	22	2
0	19669	22	2
0	19670	22	2
0	19671	22	2
0	19840	22.05	2
0	19841	22.05	2
0	19842	22.05	2
0	19869	22.1	2
0	19870	22.1	2
0	19871	22.1	2
0	19872	22.1	2
0	19873	22.1	2
0	19874	22.1	2
0	19908	22.15	2
0	19909	22.15	2
0	19910	22.15	2
0	19935	22.2	2
0	19936	22.2	2
0	19937	22.2	2
0	19938	22.2	2
0	19939	22.2	2
0	19940	22.2	2
0	19971	22.25	2
0	19972	22.25	2
0	19973	22.25	2
0	19998	22.3	2
0	19999	22.3	2
0	20000	22.3	2
0	20001	22.3	2
0	20002	22.3	2
0	20003	22.3	2
0	20034	22.35	2
0	20035	22.35	2
0	20036	22.35	2
0	20061	22.4	2
0	20062	22.4	2
0	20063	22.4	2
0	20064	22.4	2
0	20065	22.4	2
0	20066	22.4	2
0	20097	22.45	2
0	20098	22.45	2
0	20099	22.45	2
0	20126	22.5	2
0	20127	22.5	2
0	20128	22.5	2
0	20129	22.5	2
0	20130	22.5	2
0	20131	22.5	2
0	20162	22.55	2
0	20163	22.55	2
0	20164	22.55	2
0	20329	22.6	2
0	20330	22.6	2
0	20331	22.6	2
0	20332	22.6	2
0	20333	22.6	2
0	20334	22.6	2
0	20384	22.65	2
0	20385	22.65	2
0	20386	22.65	2
0	20411	22.7	2
0	20412	22.7	2
0	20413	22.7	2
0	20414	22.7	2
0	20415	22.7	2
0	20416	22.7	2
0	20447	22.75	2
0	20448	22.75	2
0	20449	22.75	2
0	20474	22.8	2
0	20475	22.8	2
0	20476	22.8	2
0	20477	22.8	2
0	20478	22.8	2
0	20479	22.8	2
0	20510	22.85	2
0	20511	22.85	2
0	20512	22.85	2
0	20537	22.9	2
0	20538	22.9	2
0	20539	22.9	2
0	20540	22.9	2
0	20541	22.9	2
0	20542	22.9	2
0	20573	22.95	2
0	20574	22.95	2
0	20575	22.95	2
0	20601	23	2
0	20602	23	2
0	20603	23	2
0	20604	23	2
0	20605	23	2
0	20606	23	2
0	20637	23.05	2
0	20638	23.05	2
0	20639	23.05	2
0	20666	23.1	2
0	20667	23.1	2
0	20668	23.1	2
0	20669	23.1	2
0	20670	23.1	2
0	20671	23.1	2
0	20845	23.15	2
0	20846	23.15	2
0	20847	23.15	2
0	20891	23.2	2
0	20892	23.2	2
0	20893	23.2	2
0	20894	23.2	2
0	20895	23.2	2
0	20896	23.2	2
0	20927	23.25	2
0	20928	23.25	2
0	20929	23.25	2
0	20954	23.3	2
0	20955	23.3	2
0	20956	23.3	2
0	20957	23.3	2
0	20958	23.3	2
0	20959	23.3	2
0	20990	23.35	2
0	20991	23.35	2
0	20992	23.35	2
0	21017	23.4	2
0	21018	23.4	2
0	21019	23.4	2
0	21020	23.4	2
0	21021	23.4	2
0	21022	23.4	2
0	21053	23.45	2
0	21054	23.45	2
0	21055	23.45	2
0	21082	23.5	2
0	21083	23.5	2
0	21084	23.5	2
0	21085	23.5	2
0	21086	23.5	2
0	21087	23.5	2
0	21118	23.55	2
0	21119	23.55	2
0	21120	23.55	2
0	21145	23.6	2
0	21146	23.6	2
0	21147	23.6	2
0	21148	23.6	2
0	21149	23.6	2
0	21150	23.6	2
0	21181	23.65	2
0	21182	23.65	2
0	21183	23.65	2
0	21346	23.7	2
0	21347	23.7	2
0	21348	23.7	2
0	21349	23.7	2
0	21350	23.7	2
0	21351	23.7	2
0	21382	23.75	2
0	21383	23.75	2
0	21384	23.75	2
0	21409	23.8	2
0	21410	23.8	2
0	21411	23.8	2
0	21412	23.8	2
0	21413	23.8	2
0	21414	23.8	2
0	21445	23.85	2
0	21446	23.85	2
0	21447	23.85	2
0	21472	23.9	2
0	21473	23.9	2
0	21474	23.9	2
0	21475	23.9	2
0	21476	23.9	2
0	21477	23.9	2
0	21508	23.95	2
0	21509	23.95	2
0	21510	23.95	2
0	21536	24	2
0	21537	24	2
0	21538	24	2
0	21539	24	2
0	21540	24	2
0	21541	24	2
0	21572	24.05	2
0	21573	24.05	2
0	21574	24.05	2
0	21601	24.1	2
0	21602	24.1	2
0	21603	24.1	2
0	21604	24.1	2
0	21605	24.1	2
0	21606	24.1	2
0	21640	24.15	2
0	21641	24.15	2
0	21642	24.15	2
0	21667	24.2	2
0	21668	24.2	2
0	21669	24.2	2
0	21670	24.2	2
0	21671	24.2	2
0	21672	24.2	2
0	21843	24.25	2
0	21844	24.25	2
0	21845	24.25	2
0	21889	24.3	2
0	21890	24.3	2
0	21891	24.3	2
0	21892	24.3	2
0	21893	24.3	2
0	21894	24.3	2
0	21925	24.35	2
0	21926	24.35	2
0	21927	24.35	2
0	21952	24.4	2
0	21953	24.4	2
0	21954	24.4	2
0	21955	24.4	2
0	21956	24.4	2
0	21957	24.4	2
0	21988	24.45	2
0	21989	24.45	2
0	21990	24.45	2
0	22015	24.5	2
0	22016	24.5	2
0	22017	24.5	2
0	22018	24.5	2
0	22019	24.5	2
0	22020	24.5	2
0	22051	24.55	2
0	22052	24.55	2
0	22053	24.55	2
0	22078	24.6	2
0	22079	24.6	2
0	22080	24.6	2
0	22081	24.6	2
0	22082	24.6	2
0	22083	24.6	2
0	22114	24.65	2
0	22115	24.65	2
0	22116	24.65	2
0	22141	24.7	2
0	22142	24.7	2
0	22143	24.7	2
0	22144	24.7	2
0	22145	24.7	2
0	22146	24.7	2
0	22177	24.75	2
0	22178	24.75	2
0	22179	24.75	2
0	22342	24.8	2
0	22343	24.8	2
0	22344	24.8	2
0	22345	24.8	2
0	22346	24.8	2
0	22347	24.8	2
0	22378	24.85	2
0	22379	24.85	2
0	22380	24.85	2
0	22405	24.9	2
0	22406	24.9	2
0	22407	24.9	2
0	22408	24.9	2
0	22409	24.9	2
0	22410	24.9	2
0	22441	24.95	2
0	22442	24.95	2
0	22443	24.95	2
0	22468	25	2
0	22469	25	2
0	22470	25	2
0	22471	25	2
0	22472	25	2
0	22473	25	2
0	22504	25.05	2
0	22505	25.05	2
0	22506	25.05	2
0	22533	25.1	2
0	22534	25.1	2
0	22535	25.1	2
0	22536	25.1	2
0	22537	25.1	2
0	22538	25.1	2
0	22572	25.15	2
0	22573	25.15	2
0	22574	25.15	2
0	22599	25.2	2
0	22600	25.2	2
0	22601	25.2	2
0	22602	25.2	2
0	22603	25.2	2
0	22604	25.2	2
0	22635	25.25	2
0	22636	25.25	2
0	22637	25.25	2
0	22662	25.3	2
0	22663	25.3	2
0	22664	25.3	2
0	22665	25.3	2
0	22666	25.3	2
0	22667	25.3	2
0	22838	25.35	2
0	22839	25.35	2
0	22840	25.35	2
0	22884	25.4	2
0	22885	25.4	2
0	22886	25.4	2
0	22887	25.4	2
0	22888	25.4	2
0	22889	25.4	2
0	22920	25.45	2
0	22921	25.45	2
0	22922	25.45	2
0	22947	25.5	2
0	22948	25.5	2
0	22949	25.5	2
0	22950	25.5	2
0	22951	25.5	2
0	22952	25.5	2
0	22983	25.55	2
0	22984	25.55	2
0	22985	25.55	2
0	23010	25.6	2
0	23011	25.6	2
0	23012	25.6	2
0	23013	25.6	2
0	23014	25.6	2
0	23015	25.6	2
0	23046	25.65	2
0	23047	25.65	2
0	23048	25.65	2
0	23073	25.7	2
0	23074	25.7	2
0	23075	25.7	2
0	23076	25.7	2
0	23077	25.7	2
0	23078	25.7	2
0	23109	25.75	2
0	23110	25.75	2
0	23111	25.75	2
0	23136	25.8	2
0	23137	25.8	2
0	23138	25.8	2
0	23139	25.8	2
0	23140	25.8	2
0	23141	25.8	2
0	23172	25.85	2
0	23173	25.85	2
0	23174	25.85	2
0	23337	25.9	2
0	23338	25.9	2
0	23339	25.9	2
0	23340	25.9	2
0	23341	25.9	2
0	23342	25.9	2
0	23373	25.95	2
0	23374	25.95	2
0	23375	25.95	2
0	23400	26	2
0	23401	26	2
0	23402	26	2
0	23403	26	2
0	23404	26	2
0	23405	26	2
0	23436	26.05	2
0	23437	26.05	2
0	23438	26.05	2
0	23465	26.1	2
0	23466	26.1	2
0	23467	26.1	2
0	23468	26.1	2
0	23469	26.1	2
0	23470	26.1	2
0	23504	26.15	2
0	23505	26.15	2
0	23506	26.15	2
0	23531	26.2	2
0	23532	26.2	2
0	23533	26.2	2
0	23534	26.2	2
0	23535	26.2	2
0	23536	26.2	2
0	23567	26.25	2
0	23568	26.25	2
0	23569	26.25	2
0	23594	26.3	2
0	23595	26.3	2
0	23596	26.3	2
0	23597	26.3	2
0	23598	26.3	2
0	23599	26.3	2
0	23630	26.35	2
0	23631	26.35	2
0	23632	26.35	2
0	23657	26.4	2
0	23658	26.4	2
0	23659	26.4	2
0	23660	26.4	2
0	23661	26.4	2
0	23662	26.4	2
0	23833	26.45	2
0	23834	26.45	2
0	23835	26.45	2
0	23879	26.5	2
0	23880	26.5	2
0	23881	26.5	2
0	23882	26.5	2
0	23883	26.5	2
0	23884	26.5	2
0	23915	26.55	2
0	23916	26.55	2
0	23917	26.55	2
0	23942	26.6	2
0	23943	26.6	2
0	23944	26.6	2
0	23945	26.6	2
0	23946	26.6	2
0	23947	26.6	2
0	23978	26.65	2
0	23979	26.65	2
0	23980	26.65	2
0	24005	26.7	2
0	24006	26.7	2
0	24007	26.7	2
0	24008	26.7	2
0	24009	26.7	2
0	24010	26.7	2
0	24041	26.75	2
0	24042	26.75	2
0	24043	26.75	2
0	24068	26.8	2
0	24069	26.8	2
0	24070	26.8	2
0	24071	26.8	2
0	24072	26.8	2
0	24073	26.8	2
0	24104	26.85	2
0	24105	26.85	2
0	24106	26.85	2
0	24131	26.9	2
0	24132	26.9	2
0	24133	26.9	2
0	24134	26.9	2
0	24135	26.9	2
0	24136	26.9	2
0	24167	26.95	2
0	24168	26.95	2
0	24169	26.95	2
0	24332	27	2
0	24333	27	2
0	24334	27	2
0	24335	27	2
0	24336	27	2
0	24337	27	2
0	24368	27.05	2
0	24369	27.05	2
0	24370	27.05	2
0	24397	27.1	2
0	24398	27.1	2
0	24399	27.1	2
0	24400	27.1	2
0	24401	27.1	2
0	24402	27.1	2
0	24436	27.15	2
0	24437	27.15	2
0	24438	27.15	2
0	24463	27.2	2
0	24464	27.2	2
0	24465	27.2	2
0	24466	27.2	2
0	24467	27.2	2
0	24468	27.2	2
0	24499	27.25	2
0	24500	27.25	2
0	24501	27.25	2
0	24526	27.3	2
0	24527	27.3	2
0	24528	27.3	2
0	24529	27.3	2
0	24530	27.3	2
0	24531	27.3	2
0	24562	27.35	2
0	24563	27.35	2
0	24564	27.35	2
0	24589	27.4	2
0	24590	27.4	2
0	24591	27.4	2
0	24592	27.4	2
0	24593	27.4	2
0	24594	27.4	2
0	24625	27.45	2
0	24626	27.45	2
0	24627	27.45	2
0	24652	27.5	2
0	24653	27.5	2
0	24654	27.5	2
0	24655	27.5	2
0	24656	27.5	2
0	24657	27.5	2
0	24828	27.55	2
0	24829	27.55	2
0	24830	27.55	2
0	24874	27.6	2
0	24875	27.6	2
0	24876	27.6	2
0	24877	27.6	2
0	24878	27.6	2
0	24879	27.6	2
0	24910	27.65	2
0	24911	27.65	2
0	24912	27.65	2
0	24937	27.7	2
0	24938	27.7	2
0	24939	27.7	2
0	24940	27.7	2
0	24941	27.7	2
0	24942	27.7	2
0	24973	27.75	2
0	24974	27.75	2
0	24975	27.75	2
0	25000	27.8	2
0	25001	27.8	2
0	25002	27.8	2
0	25003	27.8	2
0	25004	27.8	2
0	25005	27.8	2
0	25036	27.85	2
0	25037	27.85	2
0	25038	27.85	2
0	25063	27.9	2
0	25064	27.9	2
0	25065	27.9	2
0	25066	27.9	2
0	25067	27.9	2
0	25068	27.9	2
0	25099	27.95	2
0	25100	27.95	2
0	25101	27.95	2
0	25126	28	2
0	25127	28	2
0	25128	28	2
0	25129	28	2
0	25130	28	2
0	25131	28	2
0	25162	28.05	2
0	25163	28.05	2
0	25164	28.05	2
0	25329	28.1	2
0	25330	28.1	2
0	25331	28.1	2
0	25332	28.1	2
0	25333	28.1	2
0	25334	28.1	2
0	25368	28.15	2
0	25369	28.15	2
0	25370	28.15	2
0	25395	28.2	2
0	25396	28.2	2
0	25397	28.2	2
0	25398	28.2	2
0	25399	28.2	2
0	25400	28.2	2
0	25431	28.25	2
0	25432	28.25	2
0	25433	28.25	2
0	25458	28.3	2
0	25459	28.3	2
0	25460	28.3	2
0	25461	28.3	2
0	25462	28.3	2
0	25463	28.3	2
0	25494	28.35	2
0	25495	28.35	2
0	25496	28.35	2
0	25521	28.4	2
0	25522	28.4	2
0	25523	28.4	2
0	25524	28.4	2
0	25525	28.4	2
0	25526	28.4	2
0	25557	28.45	2
0	25558	28.45	2
0	25559	28.45	2
0	25586	28.5	2
0	25587	28.5	2
0	25588	28.5	2
0	25589	28.5	2
0	25590	28.5	2
0	25591	28.5	2
0	25622	28.55	2
0	25623	28.55	2
0	25624	28.55	2
0	25649	28.6	2
0	25650	28.6	2
0	25651	28.6	2
0	25652	28.6	2
0	25653	28.6	2
0	25654	28.6	2
0	25825	28.65	2
0	25826	28.65	2
0	25827	28.65	2
0	25871	28.7	2
0	25872	28.7	2
0	25873	28.7	2
0	25874	28.7	2
0	25875	28.7	2
0	25876	28.7	2
0	25907	28.75	2
0	25908	28.75	2
0	25909	28.75	2
0	25934	28.8	2
0	25935	28.8	2
0	25936	28.8	2
0	25937	28.8	2
0	25938	28.8	2
0	25939	28.8	2
0	25970	28.85	2
0	25971	28.85	2
0	25972	28.85	2
0	25997	28.9	2
0	25998	28.9	2
0	25999	28.9	2
0	26000	28.9	2
0	26001	28.9	2
0	26002	28.9	2
0	26033	28.95	2
0	26034	28.95	2
0	26035	28.95	2
0	26061	29	2
0	26062	29	2
0	26063	29	2
0	26064	29	2
0	26065	29	2
0	26066	29	2
0	26097	29.05	2
0	26098	29.05	2
0	26099	29.05	2
0	26126	29.1	2
0	26127	29.1	2
0	26128	29.1	2
0	26129	29.1	2
0	26130	29.1	2
0	26131	29.1	2
0	26165	29.15	2
0	26166	29.15	2
0	26167	29.15	2
0	26332	29.2	2
0	26333	29.2	2
0	26334	29.2	2
0	26335	29.2	2
0	26336	29.2	2
0	26337	29.2	2
0	26387	29.25	2
0	26388	29.25	2
0	26389	29.25	2
0	26414	29.3	2
0	26415	29.3	2
0	26416	29.3	2
0	26417	29.3	2
0	26418	29.3	2
0	26419	29.3	2
0	26450	29.35	2
0	26451	29.35	2
0	26452	29.35	2
0	26477	29.4	2
0	26478	29.4	2
0	26479	29.4	2
0	26480	29.4	2
0	26481	29.4	2
0	26482	29.4	2
0	26513	29.45	2
0	26514	29.45	2
0	26515	29.45	2
0	26540	29.5	2
0	26541	29.5	2
0	26542	29.5	2
0	26543	29.5	2
0	26544	29.5	2
0	26545	29.5	2
0	26576	29.55	2
0	26577	29.55	2
0	26578	29.55	2
0	26603	29.6	2
0	26604	29.6	2
0	26605	29.6	2
0	26606	29.6	2
0	26607	29.6	2
0	26608	29.6	2
0	26639	29.65	2
0	26640	29.65	2
0	26641	29.65	2
0	26666	29.7	2
0	26667	29.7	2
0	26668	29.7	2
0	26669	29.7	2
0	26670	29.7	2
0	26671	29.7	2
0	26840	29.75	2
0	26841	29.75	2
0	26842	29.75	2
0	26867	29.8	2
0	26868	29.8	2
0	26869	29.8	2
0	26870	29.8	2
0	26871	29.8	2
0	26872	29.8	2
0	26903	29.85	2
0	26904	29.85	2
0	26905	29.85	2
0	26930	29.9	2
0	26931	29.9	2
0	26932	29.9	2
0	26933	29.9	2
0	26934	29.9	2
0	26935	29.9	2
0	26966	29.95	2
0	26967	29.95	2
0	26968	29.95	2
0	26993	30	2
0	26994	30	2
0	26995	30	2
0	26996	30	2
0	26997	30	2
0	26998	30	2
0	27029	30.05	2
0	27030	30.05	2
0	27031	30.05	2
0	27058	30.1	2
0	27059	30.1	2
0	27060	30.1	2
0	27061	30.1	2
0	27062	30.1	2
0	27063	30.1	2
0	27097	30.15	2
0	27098	30.15	2
0	27099	30.15	2
0	27124	30.2	2
0	27125	30.2	2
0	27126	30.2	2
0	27127	30.2	2
0	27128	30.2	2
0	27129	30.2	2
0	27160	30.25	2
0	27161	30.25	2
0	27162	30.25	2
0	27327	30.3	2
0	27328	30.3	2
0	27329	30.3	2
0	27330	30.3	2
0	27331	30.3	2
0	27332	30.3	2
0	27382	30.35	2
0	27383	30.35	2
0	27384	30.35	2
0	27409	30.4	2
0	27410	30.4	2
0	27411	30.4	2
0	27412	30.4	2
0	27413	30.4	2
0	27414	30.4	2
0	27445	30.45	2
0	27446	30.45	2
0	27447	30.45	2
0	27472	30.5	2
0	27473	30.5	2
0	27474	30.5	2
0	27475	30.5	2
0	27476	30.5	2
0	27477	30.5	2
0	27508	30.55	2
0	27509	30.55	2
0	27510	30.55	2
0	27535	30.6	2
0	27536	30.6	2
0	27537	30.6	2
0	27538	30.6	2
0	27539	30.6	2
0	27540	30.6	2
0	27571	30.65	2
0	27572	30.65	2
0	27573	30.65	2
0	27598	30.7	2
0	27599	30.7	2
0	27600	30.7	2
0	27601	30.7	2
0	27602	30.7	2
0	27603	30.7	2
0	27634	30.75	2
0	27635	30.75	2
0	27636	30.75	2
0	27661	30.8	2
0	27662	30.8	2
0	27663	30.8	2
0	27664	30.8	2
0	27665	30.8	2
0	27666	30.8	2
0	27835	30.85	2
0	27836	30.85	2
0	27837	30.85	2
0	27862	30.9	2
0	27863	30.9	2
0	27864	30.9	2
0	27865	30.9	2
0	27866	30.9	2
0	27867	30.9	2
0	27898	30.95	2
0	27899	30.95	2
0	27900	30.95	2
0	27925	31	2
0	27926	31	2
0	27927	31	2
0	27928	31	2
0	27929	31	2
0	27930	31	2
0	27961	31.05	2
0	27962	31.05	2
0	27963	31.05	2
0	27990	31.1	2
0	27991	31.1	2
0	27992	31.1	2
0	27993	31.1	2
0	27994	31.1	2
0	27995	31.1	2
0	28029	31.15	2
0	28030	31.15	2
0	28031	31.15	2
0	28056	31.2	2
0	28057	31.2	2
0	28058	31.2	2
0	28059	31.2	2
0	28060	31.2	2
0	28061	31.2	2
0	28092	31.25	2
0	28093	31.25	2
0	28094	31.25	2
0	28119	31.3	2
0	28120	31.3	2
0	28121	31.3	2
0	28122	31.3	2
0	28123	31.3	2
0	28124	31.3	2
0	28155	31.35	2
0	28156	31.35	2
0	28157	31.35	2
0	28322	31.4	2
0	28323	31.4	2
0	28324	31.4	2
0	28325	31.4	2
0	28326	31.4	2
0	28327	31.4	2
0	28377	31.45	2
0	28378	31.45	2
0	28379	31.45	2
0	28404	31.5	2
0	28405	31.5	2
0	28406	31.5	2
0	28407	31.5	2
0	28408	31.5	2
0	28409	31.5	2
0	28440	31.55	2
0	28441	31.55	2
0	28442	31.55	2
0	28467	31.6	2
0	28468	31.6	2
0	28469	31.6	2
0	28470	31.6	2
0	28471	31.6	2
0	28472	31.6	2
0	28503	31.65	2
0	28504	31.65	2
0	28505	31.65	2
0	28530	31.7	2
0	28531	31.7	2
0	28532	31.7	2
0	28533	31.7	2
0	28534	31.7	2
0	28535	31.7	2
0	28566	31.75	2
0	28567	31.75	2
0	28568	31.75	2
0	28593	31.8	2
0	28594	31.8	2
0	28595	31.8	2
0	28596	31.8	2
0	28597	31.8	2
0	28598	31.8	2
0	28629	31.85	2
0	28630	31.85	2
0	28631	31.85	2
0	28656	31.9	2
0	28657	31.9	2
0	28658	31.9	2
0	28659	31.9	2
0	28660	31.9	2
0	28661	31.9	2
0	28830	31.95	2
0	28831	31.95	2
0	28832	31.95	2
0	28857	32	2
0	28858	32	2
0	28859	32	2
0	28860	32	2
0	28861	32	2
0	28862	32	2
0	28893	32.05	2
0	28894	32.05	2
0	28895	32.05	2
0	28922	32.1	2
0	28923	32.1	2
0	28924	32.1	2
0	28925	32.1	2
0	28926	32.1	2
0	28927	32.1	2
0	28961	32.15	2
0	28962	32.15	2
0	28963	32.15	2
0	28988	32.2	2
0	28989	32.2	2
0	28990	32.2	2
0	28991	32.2	2
0	28992	32.2	2
0	28993	32.2	2
0	29024	32.25	2
0	29025	32.25	2
0	29026	32.25	2
0	29051	32.3	2
0	29052	32.3	2
0	29053	32.3	2
0	29054	32.3	2
0	29055	32.3	2
0	29056	32.3	2
0	29087	32.35	2
0	29088	32.35	2
0	29089	32.35	2
0	29114	32.4	2
0	29115	32.4	2
0	29116	32.4	2
0	29117	32.4	2
0	29118	32.4	2
0	29119	32.4	2
0	29150	32.45	2
0	29151	32.45	2
0	29152	32.45	2
0	29317	32.5	2
0	29318	32.5	2
0	29319	32.5	2
0	29320	32.5	2
0	29321	32.5	2
0	29322	32.5	2
0	29372	32.55	2
0	29373	32.55	2
0	29374	32.55	2
0	29399	32.6	2
0	29400	32.6	2
0	29401	32.6	2
0	29402	32.6	2
0	29403	32.6	2
0	29404	32.6	2
0	29435	32.65	2
0	29436	32.65	2
0	29437	32.65	2
0	29462	32.7	2
0	29463	32.7	2
0	29464	32.7	2
0	29465	32.7	2
0	29466	32.7	2
0	29467	32.7	2
0	29498	32.75	2
0	29499	32.75	2
0	29500	32.75	2
0	29525	32.8	2
0	29526	32.8	2
0	29527	32.8	2
0	29528	32.8	2
0	29529	32.8	2
0	29530	32.8	2
0	29561	32.85	2
0	29562	32.85	2
0	29563	32.85	2
0	29588	32.9	2
0	29589	32.9	2
0	29590	32.9	2
0	29591	32.9	2
0	29592	32.9	2
0	29593	32.9	2
0	29624	32.95	2
0	29625	32.95	2
0	29626	32.95	2
0	29651	33	2
0	29652	33	2
0	29653	33	2
0	29654	33	2
0	29655	33	2
0	29656	33	2
0	29825	33.05	2
0	29826	33.05	2
0	29827	33.05	2
0	29854	33.1	2
0	29855	33.1	2
0	29856	33.1	2
0	29857	33.1	2
0	29858	33.1	2
0	29859	33.1	2
0	29893	33.15	2
0	29894	33.15	2
0	29895	33.15	2
0	29920	33.2	2
0	29921	33.2	2
0	29922	33.2	2
0	29923	33.2	2
0	29924	33.2	2
0	29925	33.2	2
0	29956	33.25	2
0	29957	33.25	2
0	29958	33.25	2
0	29983	33.3	2
0	29984	33.3	2
0	29985	33.3	2
0	29986	33.3	2
0	29987	33.3	2
0	29988	33.3	2
0	30019	33.35	2
0	30020	33.35	2
0	30021	33.35	2
0	30046	33.4	2
0	30047	33.4	2
0	30048	33.4	2
0	30049	33.4	2
0	30050	33.4	2
0	30051	33.4	2
0	30082	33.45	2
0	30083	33.45	2
0	30084	33.45	2
0	30111	33.5	2
0	30112	33.5	2
0	30113	33.5	2
0	30114	33.5	2
0	30115	33.5	2
0	30116	33.5	2
0	30147	33.55	2
0	30148	33.55	2
0	30149	33.55	2
0	30314	33.6	2
0	30315	33.6	2
0	30316	33.6	2
0	30317	33.6	2
0	30318	33.6	2
0	30319	33.6	2
0	30369	33.65	2
0	30370	33.65	2
0	30371	33.65	2
0	30396	33.7	2
0	30397	33.7	2
0	30398	33.7	2
0	30399	33.7	2
0	30400	33.7	2
0	30401	33.7	2
0	30432	33.75	2
0	30433	33.75	2
0	30434	33.75	2
0	30459	33.8	2
0	30460	33.8	2
0	30461	33.8	2
0	30462	33.8	2
0	30463	33.8	2
0	30464	33.8	2
0	30495	33.85	2
0	30496	33.85	2
0	30497	33.85	2
0	30522	33.9	2
0	30523	33.9	2
0	30524	33.9	2
0	30525	33.9	2
0	30526	33.9	2
0	30527	33.9	2
0	30558	33.95	2
0	30559	33.95	2
0	30560	33.95	2
0	30586	34	2
0	30587	34	2
0	30588	34	2
0	30589	34	2
0	30590	34	2
0	30591	34	2
0	30622	34.05	2
0	30623	34.05	2
0	30624	34.05	2
0	30651	34.1	2
0	30652	34.1	2
0	30653	34.1	2
0	30654	34.1	2
0	30655	34.1	2
0	30656	34.1	2
0	30830	34.15	2
0	30831	34.15	2
0	30832	34.15	2
0	30876	34.2	2
0	30877	34.2	2
0	30878	34.2	2
0	30879	34.2	2
0	30880	34.2	2
0	30881	34.2	2
0	30912	34.25	2
0	30913	34.25	2
0	30914	34.25	2
0	30939	34.3	2
0	30940	34.3	2
0	30941	34.3	2
0	30942	34.3	2
0	30943	34.3	2
0	30944	34.3	2
0	30975	34.35	2
0	30976	34.35	2
0	30977	34.35	2
0	31002	34.4	2
0	31003	34.4	2
0	31004	34.4	2
0	31005	34.4	2
0	31006	34.4	2
0	31007	34.4	2
0	31038	34.45	2
0	31039	34.45	2
0	31040	34.45	2
0	31065	34.5	2
0	31066	34.5	2
0	31067	34.5	2
0	31068	34.5	2
0	31069	34.5	2
0	31070	34.5	2
0	31101	34.55	2
0	31102	34.55	2
0	31103	34.55	2
0	31128	34.6	2
0	31129	34.6	2
0	31130	34.6	2
0	31131	34.6	2
0	31132	34.6	2
0	31133	34.6	2
0	31164	34.65	2
0	31165	34.65	2
0	31166	34.65	2
0	31329	34.7	2
0	31330	34.7	2
0	31331	34.7	2
0	31332	34.7	2
0	31333	34.7	2
0	31334	34.7	2
0	31365	34.75	2
0	31366	34.75	2
0	31367	34.75	2
0	31392	34.8	2
0	31393	34.8	2
0	31394	34.8	2
0	31395	34.8	2
0	31396	34.8	2
0	31397	34.8	2
0	31428	34.85	2
0	31429	34.85	2
0	31430	34.85	2
0	31455	34.9	2
0	31456	34.9	2
0	31457	34.9	2
0	31458	34.9	2
0	31459	34.9	2
0	31460	34.9	2
0	31491	34.95	2
0	31492	34.95	2
0	31493	34.95	2
0	31518	35	2
0	31519	35	2
0	31520	35	2
0	31521	35	2
0	31522	35	2
0	31523	35	2
0	31554	35.05	2
0	31555	35.05	2
0	31556	35.05	2
0	31583	35.1	2
0	31584	35.1	2
0	31585	35.1	2
0	31586	35.1	2
0	31587	35.1	2
0	31588	35.1	2
0	31622	35.15	2
0	31623	35.15	2
0	31624	35.15	2
0	31649	35.2	2
0	31650	35.2	2
0	31651	35.2	2
0	31652	35.2	2
0	31653	35.2	2
0	31654	35.2	2
0	31825	35.25	2
0	31826	35.25	2
0	31827	35.25	2
0	31871	35.3	2
0	31872	35.3	2
0	31873	35.3	2
0	31874	35.3	2
0	31875	35.3	2
0	31876	35.3	2
0	31907	35.35	2
0	31908	35.35	2
0	31909	35.35	2
0	31934	35.4	2
0	31935	35.4	2
0	31936	35.4	2
0	31937	35.4	2
0	31938	35.4	2
0	31939	35.4	2
0	31970	35.45	2
0	31971	35.45	2
0	31972	35.45	2
0	31997	35.5	2
0	31998	35.5	2
0	31999	35.5	2
0	32000	35.5	2
0	32001	35.5	2
0	32002	35.5	2
0	32033	35.55	2
0	32034	35.55	2
0	32035	35.55	2
0	32060	35.6	2
0	32061	35.6	2
0	32062	35.6	2
0	32063	35.6	2
0	32064	35.6	2
0	32065	35.6	2
0	32096	35.65	2
0	32097	35.65	2
0	32098	35.65	2
0	32123	35.7	2
0	32124	35.7	2
0	32125	35.7	2
0	32126	35.7	2
0	32127	35.7	2
0	32128	35.7	2
0	32159	35.75	2
0	32160	35.75	2
0	32161	35.75	2
0	32324	35.8	2
0	32325	35.8	2
0	32326	35.8	2
0	32327	35.8	2
0	32328	35.8	2
0	32329	35.8	2
0	32360	35.85	2
0	32361	35.85	2
0	32362	35.85	2
0	32387	35.9	2
0	32388	35.9	2
0	32389	35.9	2
0	32390	35.9	2
0	32391	35.9	2
0	32392	35.9	2
0	32423	35.95	2
0	32424	35.95	2
0	32425	35.95	2
0	32450	36	2
0	32451	36	2
0	32452	36	2
0	32453	36	2
0	32454	36	2
0	32455	36	2
0	32486	36.05	2
0	32487	36.05	2
0	32488	36.05	2
0	32515	36.1	2
0	32516	36.1	2
0	32517	36.1	2
0	32518	36.1	2
0	32519	36.1	2
0	32520	36.1	2
0	32554	36.15	2
0	32555	36.15	2
0	32556	36.15	2
0	32581	36.2	2
0	32582	36.2	2
0	32583	36.2	2
0	32584	36.2	2
0	32585	36.2	2
0	32586	36.2	2
0	32617	36.25	2
0	32618	36.25	2
0	32619	36.25	2
0	32644	36.3	2
0	32645	36.3	2
0	32646	36.3	2
0	32647	36.3	2
0	32648	36.3	2
0	32649	36.3	2
0	32820	36.35	2
0	32821	36.35	2
0	32822	36.35	2
0	32866	36.4	2
0	32867	36.4	2
0	32868	36.4	2
0	32869	36.4	2
0	32870	36.4	2
0	32871	36.4	2
0	32902	36.45	2
0	32903	36.45	2
0	32904	36.45	2
0	32929	36.5	2
0	32930	36.5	2
0	32931	36.5	2
0	32932	36.5	2
0	32933	36.5	2
0	32934	36.5	2
0	32965	36.55	2
0	32966	36.55	2
0	32967	36.55	2
0	32992	36.6	2
0	32993	36.6	2
0	32994	36.6	2
0	32995	36.6	2
0	32996	36.6	2
0	32997	36.6	2
0	33028	36.65	2
0	33029	36.65	2
0	33030	36.65	2
0	33055	36.7	2
0	33056	36.7	2
0	33057	36.7	2
0	33058	36.7	2
0	33059	36.7	2
0	33060	36.7	2
0	33091	36.75	2
0	33092	36.75	2
0	33093	36.75	2
0	33118	36.8	2
0	33119	36.8	2
0	33120	36.8	2
0	33121	36.8	2
0	33122	36.8	2
0	33123	36.8	2
0	33154	36.85	2
0	33155	36.85	2
0	33156	36.85	2
0	33319	36.9	2
0	33320	36.9	2
0	33321	36.9	2
0	33322	36.9	2
0	33323	36.9	2
0	33324	36.9	2
0	33355	36.95	2
0	33356	36.95	2
0	33357	36.95	2
0	33382	37	2
0	33383	37	2
0	33384	37	2
0	33385	37	2
0	33386	37	2
0	33387	37	2
0	33418	37.05	2
0	33419	37.05	2
0	33420	37.05	2
0	33447	37.1	2
0	33448	37.1	2
0	33449	37.1	2
0	33450	37.1	2
0	33451	37.1	2
0	33452	37.1	2
0	33486	37.15	2
0	33487	37.15	2
0	33488	37.15	2
0	33513	37.2	2
0	33514	37.2	2
0	33515	37.2	2
0	33516	37.2	2
0	33517	37.2	2
0	33518	37.2	2
0	33549	37.25	2
0	33550	37.25	2
0	33551	37.25	2
0	33576	37.3	2
0	33577	37.3	2
0	33578	37.3	2
0	33579	37.3	2
0	33580	37.3	2
0	33581	37.3	2
0	33612	37.35	2
0	33613	37.35	2
0	33614	37.35	2
0	33639	37.4	2
0	33640	37.4	2
0	33641	37.4	2
0	33642	37.4	2
0	33643	37.4	2
0	33644	37.4	2
0	33815	37.45	2
0	33816	37.45	2
0	33817	37.45	2
0	33861	37.5	2
0	33862	37.5	2
0	33863	37.5	2
0	33864	37.5	2
0	33865	37.5	2
0	33866	37.5	2
0	33897	37.55	2
0	33898	37.55	2
0	33899	37.55	2
0	33924	37.6	2
0	33925	37.6	2
0	33926	37.6	2
0	33927	37.6	2
0	33928	37.6	2
0	33929	37.6	2
0	33960	37.65	2
0	33961	37.65	2
0	33962	37.65	2
0	33987	37.7	2
0	33988	37.7	2
0	33989	37.7	2
0	33990	37.7	2
0	33991	37.7	2
0	33992	37.7	2
0	34023	37.75	2
0	34024	37.75	2
0	34025	37.75	2
0	34050	37.8	2
0	34051	37.8	2
0	34052	37.8	2
0	34053	37.8	2
0	34054	37.8	2
0	34055	37.8	2
0	34086	37.85	2
0	34087	37.85	2
0	34088	37.85	2
0	34113	37.9	2
0	34114	37.9	2
0	34115	37.9	2
0	34116	37.9	2
0	34117	37.9	2
0	34118	37.9	2
0	34149	37.95	2
0	34150	37.95	2
0	34151	37.95	2
0	34314	38	2
0	34315	38	2
0	34316	38	2
0	34317	38	2
0	34318	38	2
0	34319	38	2
0	34350	38.05	2
0	34351	38.05	2
0	34352	38.05	2
0	34379	38.1	2
0	34380	38.1	2
0	34381	38.1	2
0	34382	38.1	2
0	34383	38.1	2
0	34384	38.1	2
0	34418	38.15	2
0	34419	38.15	2
0	34420	38.15	2
0	34445	38.2	2
0	34446	38.2	2
0	34447	38.2	2
0	34448	38.2	2
0	34449	38.2	2
0	34450	38.2	2
0	34481	38.25	2
0	34482	38.25	2
0	34483	38.25	2
0	34508	38.3	2
0	34509	38.3	2
0	34510	38.3	2
0	34511	38.3	2
0	34512	38.3	2
0	34513	38.3	2
0	34544	38.35	2
0	34545	38.35	2
0	34546	38.35	2
0	34571	38.4	2
0	34572	38.4	2
0	34573	38.4	2
0	34574	38.4	2
0	34575	38.4	2
0	34576	38.4	2
0	34607	38.45	2
0	34608	38.45	2
0	34609	38.45	2
0	34636	38.5	2
0	34637	38.5	2
0	34638	38.5	2
0	34639	38.5	2
0	34640	38.5	2
0	34641	38.5	2
0	34812	38.55	2
0	34813	38.55	2
0	34814	38.55	2
0	34858	38.6	2
0	34859	38.6	2
0	34860	38.6	2
0	34861	38.6	2
0	34862	38.6	2
0	34863	38.6	2
0	34894	38.65	2
0	34895	38.65	2
0	34896	38.65	2
0	34921	38.7	2
0	34922	38.7	2
0	34923	38.7	2
0	34924	38.7	2
0	34925	38.7	2
0	34926	38.7	2
0	34957	38.75	2
0	34958	38.75	2
0	34959	38.75	2
0	34984	38.8	2
0	34985	38.8	2
0	34986	38.8	2
0	34987	38.8	2
0	34988	38.8	2
0	34989	38.8	2
0	35020	38.85	2
0	35021	38.85	2
0	35022	38.85	2
0	35047	38.9	2
0	35048	38.9	2
0	35049	38.9	2
0	35050	38.9	2
0	35051	38.9	2
0	35052	38.9	2
0	35083	38.95	2
0	35084	38.95	2
0	35085	38.95	2
0	35111	39	2
0	35112	39	2
0	35113	39	2
0	35114	39	2
0	35115	39	2
0	35116	39	2
0	35147	39.05	2
0	35148	39.05	2
0	35149	39.05	2
0	35314	39.1	2
0	35315	39.1	2
0	35316	39.1	2
0	35317	39.1	2
0	35318	39.1	2
0	35319	39.1	2
0	35353	39.15	2
0	35354	39.15	2
0	35355	39.15	2
0	35380	39.2	2
0	35381	39.2	2
0	35382	39.2	2
0	35383	39.2	2
0	35384	39.2	2
0	35385	39.2	2
0	35416	39.25	2
0	35417	39.25	2
0	35418	39.25	2
0	35443	39.3	2
0	35444	39.3	2
0	35445	39.3	2
0	35446	39.3	2
0	35447	39.3	2
0	35448	39.3	2
0	35479	39.35	2
0	35480	39.35	2
0	35481	39.35	2
0	35506	39.4	2
0	35507	39.4	2
0	35508	39.4	2
0	35509	39.4	2
0	35510	39.4	2
0	35511	39.4	2
0	35542	39.45	2
0	35543	39.45	2
0	35544	39.45	2
0	35569	39.5	2
0	35570	39.5	2
0	35571	39.5	2
0	35572	39.5	2
0	35573	39.5	2
0	35574	39.5	2
0	35605	39.55	2
0	35606	39.55	2
0	35607	39.55	2
0	35632	39.6	2
0	35633	39.6	2
0	35634	39.6	2
0	35635	39.6	2
0	35636	39.6	2
0	35637	39.6	2
0	35808	39.65	2
0	35809	39.65	2
0	35810	39.65	2
0	35854	39.7	2
0	35855	39.7	2
0	35856	39.7	2
0	35857	39.7	2
0	35858	39.7	2
0	35859	39.7	2
0	35890	39.75	2
0	35891	39.75	2
0	35892	39.75	2
0	35917	39.8	2
0	35918	39.8	2
0	35919	39.8	2
0	35920	39.8	2
0	35921	39.8	2
0	35922	39.8	2
0	35953	39.85	2
0	35954	39.85	2
0	35955	39.85	2
0	35980	39.9	2
0	35981	39.9	2
0	35982	39.9	2
0	35983	39.9	2
0	35984	39.9	2
0	35985	39.9	2
0	36016	39.95	2
0	36017	39.95	2
0	36018	39.95	2
0	36043	40	2
0	36044	40	2
0	36045	40	2
0	36046	40	2
0	36047	40	2
0	36048	40	2
0	36079	40.05	2
0	36080	40.05	2
0	36081	40.05	2
0	36108	40.1	2
0	36109	40.1	2
0	36110	40.1	2
0	36111	40.1	2
0	36112	40.1	2
0	36113	40.1	2
0	36147	40.15	2
0	36148	40.15	2
0	36149	40.15	2
0	36314	40.2	2
0	36315	40.2	2
0	36316	40.2	2
0	36317	40.2	2
0	36318	40.2	2
0	36319	40.2	2
0	36369	40.25	2
0	36370	40.25	2
0	36371	40.25	2
0	36396	40.3	2
0	36397	40.3	2
0	36398	40.3	2
0	36399	40.3	2
0	36400	40.3	2
0	36401	40.3	2
0	36432	40.35	2
0	36433	40.35	2
0	36434	40.35	2
0	36459	40.4	2
0	36460	40.4	2
0	36461	40.4	2
0	36462	40.4	2
0	36463	40.4	2
0	36464	40.4	2
0	36495	40.45	2
0	36496	40.45	2
0	36497	40.45	2
0	36522	40.5	2
0	36523	40.5	2
0	36524	40.5	2
0	36525	40.5	2
0	36526	40.5	2
0	36527	40.5	2
0	36558	40.55	2
0	36559	40.55	2
0	36560	40.55	2
0	36585	40.6	2
0	36586	40.6	2
0	36587	40.6	2
0	36588	40.6	2
0	36589	40.6	2
0	36590	40.6	2
0	36621	40.65	2
0	36622	40.65	2
0	36623	40.65	2
0	36648	40.7	2
0	36649	40.7	2
0	36650	40.7	2
0	36651	40.7	2
0	36652	40.7	2
0	36653	40.7	2
0	36822	40.75	2
0	36823	40.75	2
0	36824	40.75	2
0	36849	40.8	2
0	36850	40.8	2
0	36851	40.8	2
0	36852	40.8	2
0	36853	40.8	2
0	36854	40.8	2
0	36885	40.85	2
0	36886	40.85	2
0	36887	40.85	2
0	36912	40.9	2
0	36913	40.9	2
0	36914	40.9	2
0	36915	40.9	2
0	36916	40.9	2
0	36917	40.9	2
0	36948	40.95	2
0	36949	40.95	2
0	36950	40.95	2
0	36975	41	2
0	36976	41	2
0	36977	41	2
0	36978	41	2
0	36979	41	2
0	36980	41	2
0	37011	41.05	2
0	37012	41.05	2
0	37013	41.05	2
0	37040	41.1	2
0	37041	41.1	2
0	37042	41.1	2
0	37043	41.1	2
0	37044	41.1	2
0	37045	41.1	2
0	37079	41.15	2
0	37080	41.15	2
0	37081	41.15	2
0	37106	41.2	2
0	37107	41.2	2
0	37108	41.2	2
0	37109	41.2	2
0	37110	41.2	2
0	37111	41.2	2
0	37142	41.25	2
0	37143	41.25	2
0	37144	41.25	2
0	37309	41.3	2
0	37310	41.3	2
0	37311	41.3	2
0	37312	41.3	2
0	37313	41.3	2
0	37314	41.3	2
0	37364	41.35	2
0	37365	41.35	2
0	37366	41.35	2
0	37391	41.4	2
0	37392	41.4	2
0	37393	41.4	2
0	37394	41.4	2
0	37395	41.4	2
0	37396	41.4	2
0	37427	41.45	2
0	37428	41.45	2
0	37429	41.45	2
0	37454	41.5	2
0	37455	41.5	2
0	37456	41.5	2
0	37457	41.5	2
0	37458	41.5	2
0	37459	41.5	2
0	37490	41.55	2
0	37491	41.55	2
0	37492	41.55	2
0	37517	41.6	2
0	37518	41.6	2
0	37519	41.6	2
0	37520	41.6	2
0	37521	41.6	2
0	37522	41.6	2
0	37553	41.65	2
0	37554	41.65	2
0	37555	41.65	2
0	37580	41.7	2
0	37581	41.7	2
0	37582	41.7	2
0	37583	41.7	2
0	37584	41.7	2
0	37585	41.7	2
0	37616	41.75	2
0	37617	41.75	2
0	37618	41.75	2
0	37643	41.8	2
0	37644	41.8	2
0	37645	41.8	2
0	37646	41.8	2
0	37647	41.8	2
0	37648	41.8	2
0	37817	41.85	2
0	37818	41.85	2
0	37819	41.85	2
0	37844	41.9	2
0	37845	41.9	2
0	37846	41.9	2
0	37847	41.9	2
0	37848	41.9	2
0	37849	41.9	2
0	37880	41.95	2
0	37881	41.95	2
0	37882	41.95	2
0	37907	42	2
0	37908	42	2
0	37909	42	2
0	37910	42	2
0	37911	42	2
0	37912	42	2
0	37943	42.05	2
0	37944	42.05	2
0	37945	42.05	2
0	37972	42.1	2
0	37973	42.1	2
0	37974	42.1	2
0	37975	42.1	2
0	37976	42.1	2
0	37977	42.1	2
0	38011	42.15	2
0	38012	42.15	2
0	38013	42.15	2
0	38038	42.2	2
0	38039	42.2	2
0	38040	42.2	2
0	38041	42.2	2
0	38042	42.2	2
0	38043	42.2	2
0	38074	42.25	2
0	38075	42.25	2
0	38076	42.25	2
0	38101	42.3	2
0	38102	42.3	2
0	38103	42.3	2
0	38104	42.3	2
0	38105	42.3	2
0	38106	42.3	2
0	38137	42.35	2
0	38138	42.35	2
0	38139	42.35	2
0	38304	42.4	2
0	38305	42.4	2
0	38306	42.4	2
0	38307	42.4	2
0	38308	42.4	2
0	38309	42.4	2
0	38359	42.45	2
0	38360	42.45	2
0	38361	42.45	2
0	38386	42.5	2
0	38387	42.5	2
0	38388	42.5	2
0	38389	42.5	2
0	38390	42.5	2
0	38391	42.5	2
0	38422	42.55	2
0	38423	42.55	2
0	38424	42.55	2
0	38449	42.6	2
0	38450	42.6	2
0	38451	42.6	2
0	38452	42.6	2
0	38453	42.6	2
0	38454	42.6	2
0	38485	42.65	2
0	38486	42.65	2
0	38487	42.65	2
0	38512	42.7	2
0	38513	42.7	2
0	38514	42.7	2
0	38515	42.7	2
0	38516	42.7	2
0	38517	42.7	2
0	38548	42.75	2
0	38549	42.75	2
0	38550	42.75	2
0	38575	42.8	2
0	38576	42.8	2
0	38577	42.8	2
0	38578	42.8	2
0	38579	42.8	2
0	38580	42.8	2
0	38611	42.85	2
0	38612	42.85	2
0	38613	42.85	2
0	38638	42.9	2
0	38639	42.9	2
0	38640	42.9	2
0	38641	42.9	2
0	38642	42.9	2
0	38643	42.9	2
0	38812	42.95	2
0	38813	42.95	2
0	38814	42.95	2
0	38839	43	2
0	38840	43	2
0	38841	43	2
0	38842	43	2
0	38843	43	2
0	38844	43	2
0	38875	43.05	2
0	38876	43.05	2
0	38877	43.05	2
0	38904	43.1	2
0	38905	43.1	2
0	38906	43.1	2
0	38907	43.1	2
0	38908	43.1	2
0	38909	43.1	2
0	38943	43.15	2
0	38944	43.15	2
0	38945	43.15	2
0	38970	43.2	2
0	38971	43.2	2
0	38972	43.2	2
0	38973	43.2	2
0	38974	43.2	2
0	38975	43.2	2
0	39006	43.25	2
0	39007	43.25	2
0	39008	43.25	2
0	39033	43.3	2
0	39034	43.3	2
0	39035	43.3	2
0	39036	43.3	2
0	39037	43.3	2
0	39038	43.3	2
0	39069	43.35	2
0	39070	43.35	2
0	39071	43.35	2
0	39096	43.4	2
0	39097	43.4	2
0	39098	43.4	2
0	39099	43.4	2
0	39100	43.4	2
0	39101	43.4	2
0	39132	43.45	2
0	39133	43.45	2
0	39134	43.45	2
0	39301	43.5	2
0	39302	43.5	2
0	39303	43.5	2
0	39304	43.5	2
0	39305	43.5	2
0	39306	43.5	2
0	39356	43.55	2
0	39357	43.55	2
0	39358	43.55	2
0	39383	43.6	2
0	39384	43.6	2
0	39385	43.6	2
0	39386	43.6	2
0	39387	43.6	2
0	39388	43.6	2
0	39419	43.65	2
0	39420	43.65	2
0	39421	43.65	2
0	39446	43.7	2
0	39447	43.7	2
0	39448	43.7	2
0	39449	43.7	2
0	39450	43.7	2
0	39451	43.7	2
0	39482	43.75	2
0	39483	43.75	2
0	39484	43.75	2
0	39509	43.8	2
0	39510	43.8	2
0	39511	43.8	2
0	39512	43.8	2
0	39513	43.8	2
0	39514	43.8	2
0	39545	43.85	2
0	39546	43.85	2
0	39547	43.85	2
0	39572	43.9	2
0	39573	43.9	2
0	39574	43.9	2
0	39575	43.9	2
0	39576	43.9	2
0	39577	43.9	2
0	39608	43.95	2
0	39609	43.95	2
0	39610	43.95	2
0	39636	44	2
0	39637	44	2
0	39638	44	2
0	39639	44	2
0	39640	44	2
0	39641	44	2
0	39810	44.05	2
0	39811	44.05	2
0	39812	44.05	2
0	39839	44.1	2
0	39840	44.1	2
0	39841	44.1	2
0	39842	44.1	2
0	39843	44.1	2
0	39844	44.1	2
0	39878	44.15	2
0	39879	44.15	2
0	39880	44.15	2
0	39905	44.2	2
0	39906	44.2	2
0	39907	44.2	2
0	39908	44.2	2
0	39909	44.2	2
0	39910	44.2	2
0	39941	44.25	2
0	39942	44.25	2
0	39943	44.25	2
0	39968	44.3	2
0	39969	44.3	2
0	39970	44.3	2
0	39971	44.3	2
0	39972	44.3	2
0	39973	44.3	2
0	40004	44.35	2
0	40005	44.35	2
0	40006	44.35	2
0	40031	44.4	2
0	40032	44.4	2
0	40033	44.4	2
0	40034	44.4	2
0	40035	44.4	2
0	40036	44.4	2
0	40067	44.45	2
0	40068	44.45	2
0	40069	44.45	2
0	40094	44.5	2
0	40095	44.5	2
0	40096	44.5	2
0	40097	44.5	2
0	40098	44.5	2
0	40099	44.5	2
0	40130	44.55	2
0	40131	44.55	2
0	40132	44.55	2
0	40297	44.6	2
0	40298	44.6	2
0	40299	44.6	2
0	40300	44.6	2
0	40301	44.6	2
0	40302	44.6	2
0	40352	44.65	2
0	40353	44.65	2
0	40354	44.65	2
0	40379	44.7	2
0	40380	44.7	2
0	40381	44.7	2
0	40382	44.7	2
0	40383	44.7	2
0	40384	44.7	2
0	40415	44.75	2
0	40416	44.75	2
0	40417	44.75	2
0	40442	44.8	2
0	40443	44.8	2
0	40444	44.8	2
0	40445	44.8	2
0	40446	44.8	2
0	40447	44.8	2
0	40478	44.85	2
0	40479	44.85	2
0	40480	44.85	2
0	40505	44.9	2
0	40506	44.9	2
0	40507	44.9	2
0	40508	44.9	2
0	40509	44.9	2
0	40510	44.9	2
0	40541	44.95	2
0	40542	44.95	2
0	40543	44.95	2
0	40568	45	2
0	40569	45	2
0	40570	45	2
0	40571	45	2
0	40572	45	2
0	40573	45	2
0	40604	45.05	2
0	40605	45.05	2
0	40606	45.05	2
0	40633	45.1	2
0	40634	45.1	2
0	40635	45.1	2
0	40636	45.1	2
0	40637	45.1	2
0	40638	45.1	2
0	40812	45.15	2
0	40813	45.15	2
0	40814	45.15	2
0	40858	45.2	2
0	40859	45.2	2
0	40860	45.2	2
0	40861	45.2	2
0	40862	45.2	2
0	40863	45.2	2
0	40894	45.25	2
0	40895	45.25	2
0	40896	45.25	2
0	40921	45.3	2
0	40922	45.3	2
0	40923	45.3	2
0	40924	45.3	2
0	40925	45.3	2
0	40926	45.3	2
0	40957	45.35	2
0	40958	45.35	2
0	40959	45.35	2
0	40984	45.4	2
0	40985	45.4	2
0	40986	45.4	2
0	40987	45.4	2
0	40988	45.4	2
0	40989	45.4	2
0	41020	45.45	2
0	41021	45.45	2
0	41022	45.45	2
0	41047	45.5	2
0	41048	45.5	2
0	41049	45.5	2
0	41050	45.5	2
0	41051	45.5	2
0	41052	45.5	2
0	41083	45.55	2
0	41084	45.55	2
0	41085	45.55	2
0	41110	45.6	2
0	41111	45.6	2
0	41112	45.6	2
0	41113	45.6	2
0	41114	45.6	2
0	41115	45.6	2
0	41146	45.65	2
0	41147	45.65	2
0	41148	45.65	2
0	41311	45.7	2
0	41312	45.7	2
0	41313	45.7	2
0	41314	45.7	2
0	41315	45.7	2
0	41316	45.7	2
0	41347	45.75	2
0	41348	45.75	2
0	41349	45.75	2
0	41374	45.8	2
0	41375	45.8	2
0	41376	45.8	2
0	41377	45.8	2
0	41378	45.8	2
0	41379	45.8	2
0	41410	45.85	2
0	41411	45.85	2
0	41412	45.85	2
0	41437	45.9	2
0	41438	45.9	2
0	41439	45.9	2
0	41440	45.9	2
0	41441	45.9	2
0	41442	45.9	2
0	41473	45.95	2
0	41474	45.95	2
0	41475	45.95	2
0	41500	46	2
0	41501	46	2
0	41502	46	2
0	41503	46	2
0	41504	46	2
0	41505	46	2
0	41536	46.05	2
0	41537	46.05	2
0	41538	46.05	2
0	41565	46.1	2
0	41566	46.1	2
0	41567	46.1	2
0	41568	46.1	2
0	41569	46.1	2
0	41570	46.1	2
0	41604	46.15	2
0	41605	46.15	2
0	41606	46.15	2
0	41631	46.2	2
0	41632	46.2	2
0	41633	46.2	2
0	41634	46.2	2
0	41635	46.2	2
0	41636	46.2	2
0	41807	46.25	2
0	41808	46.25	2
0	41809	46.25	2
0	41853	46.3	2
0	41854	46.3	2
0	41855	46.3	2
0	41856	46.3	2
0	41857	46.3	2
0	41858	46.3	2
0	41889	46.35	2
0	41890	46.35	2
0	41891	46.35	2
0	41916	46.4	2
0	41917	46.4	2
0	41918	46.4	2
0	41919	46.4	2
0	41920	46.4	2
0	41921	46.4	2
0	41952	46.45	2
0	41953	46.45	2
0	41954	46.45	2
0	41979	46.5	2
0	41980	46.5	2
0	41981	46.5	2
0	41982	46.5	2
0	41983	46.5	2
0	41984	46.5	2
0	42015	46.55	2
0	42016	46.55	2
0	42017	46.55	2
0	42042	46.6	2
0	42043	46.6	2
0	42044	46.6	2
0	42045	46.6	2
0	42046	46.6	2
0	42047	46.6	2
0	42078	46.65	2
0	42079	46.65	2
0	42080	46.65	2
0	42105	46.7	2
0	42106	46.7	2
0	42107	46.7	2
0	42108	46.7	2
0	42109	46.7	2
0	42110	46.7	2
0	42141	46.75	2
0	42142	46.75	2
0	42143	46.75	2
0	42306	46.8	2
0	42307	46.8	2
0	42308	46.8	2
0	42309	46.8	2
0	42310	46.8	2
0	42311	46.8	2
0	42342	46.85	2
0	42343	46.85	2
0	42344	46.85	2
0	42369	46.9	2
0	42370	46.9	2
0	42371	46.9	2
0	42372	46.9	2
0	42373	46.9	2
0	42374	46.9	2
0	42405	46.95	2
0	42406	46.95	2
0	42407	46.95	2
0	42432	47	2
0	42433	47	2
0	42434	47	2
0	42435	47	2
0	42436	47	2
0	42437	47	2
0	42468	47.05	2
0	42469	47.05	2
0	42470	47.05	2
0	42497	47.1	2
0	42498	47.1	2
0	42499	47.1	2
0	42500	47.1	2
0	42501	47.1	2
0	42502	47.1	2
0	42536	47.15	2
0	42537	47.15	2
0	42538	47.15	2
0	42563	47.2	2
0	42564	47.2	2
0	42565	47.2	2
0	42566	47.2	2
0	42567	47.2	2
0	42568	47.2	2
0	42599	47.25	2
0	42600	47.25	2
0	42601	47.25	2
0	42626	47.3	2
0	42627	47.3	2
0	42628	47.3	2
0	42629	47.3	2
0	42630	47.3	2
0	42631	47.3	2
0	42802	47.35	2
0	42803	47.35	2
0	42804	47.35	2
0	42848	47.4	2
0	42849	47.4	2
0	42850	47.4	2
0	42851	47.4	2
0	42852	47.4	2
0	42853	47.4	2
0	42884	47.45	2
0	42885	47.45	2
0	42886	47.45	2
0	42911	47.5	2
0	42912	47.5	2
0	42913	47.5	2
0	42914	47.5	2
0	42915	47.5	2
0	42916	47.5	2
0	42947	47.55	2
0	42948	47.55	2
0	42949	47.55	2
0	42974	47.6	2
0	42975	47.6	2
0	42976	47.6	2
0	42977	47.6	2
0	42978	47.6	2
0	42979	47.6	2
0	43010	47.65	2
0	43011	47.65	2
0	43012	47.65	2
0	43037	47.7	2
0	43038	47.7	2
0	43039	47.7	2
0	43040	47.7	2
0	43041	47.7	2
0	43042	47.7	2
0	43073	47.75	2
0	43074	47.75	2
0	43075	47.75	2
0	43100	47.8	2
0	43101	47.8	2
0	43102	47.8	2
0	43103	47.8	2
0	43104	47.8	2
0	43105	47.8	2
0	43136	47.85	2
0	43137	47.85	2
0	43138	47.85	2
0	43301	47.9	2
0	43302	47.9	2
0	43303	47.9	2
0	43304	47.9	2
0	43305	47.9	2
0	43306	47.9	2
0	43337	47.95	2
0	43338	47.95	2
0	43339	47.95	2
0	43364	48	2
0	43365	48	2
0	43366	48	2
0	43367	48	2
0	43368	48	2
0	43369	48	2
0	43400	48.05	2
0	43401	48.05	2
0	43402	48.05	2
0	43429	48.1	2
0	43430	48.1	2
0	43431	48.1	2
0	43432	48.1	2
0	43433	48.1	2
0	43434	48.1	2
0	43468	48.15	2
0	43469	48.15	2
0	43470	48.15	2
0	43495	48.2	2
0	43496	48.2	2
0	43497	48.2	2
0	43498	48.2	2
0	43499	48.2	2
0	43500	48.2	2
0	43531	48.25	2
0	43532	48.25	2
0	43533	48.25	2
0	43558	48.3	2
0	43559	48.3	2
0	43560	48.3	2
0	43561	48.3	2
0	43562	48.3	2
0	43563	48.3	2
0	43594	48.35	2
0	43595	48.35	2
0	43596	48.35	2
0	43621	48.4	2
0	43622	48.4	2
0	43623	48.4	2
0	43624	48.4	2
0	43625	48.4	2
0	43626	48.4	2
0	43797	48.45	2
0	43798	48.45	2
0	43799	48.45	2
0	43845	48.5	2
0	43846	48.5	2
0	43847	48.5	2
0	43848	48.5	2
0	43849	48.5	2
0	43850	48.5	2
0	43881	48.55	2
0	43882	48.55	2
0	43883	48.55	2
0	43908	48.6	2
0	43909	48.6	2
0	43910	48.6	2
0	43911	48.6	2
0	43912	48.6	2
0	43913	48.6	2
0	43944	48.65	2
0	43945	48.65	2
0	43946	48.65	2
0	43971	48.7	2
0	43972	48.7	2
0	43973	48.7	2
0	43974	48.7	2
0	43975	48.7	2
0	43976	48.7	2
0	44007	48.75	2
0	44008	48.75	2
0	44009	48.75	2
0	44034	48.8	2
0	44035	48.8	2
0	44036	48.8	2
0	44037	48.8	2
0	44038	48.8	2
0	44039	48.8	2
0	44070	48.85	2
0	44071	48.85	2
0	44072	48.85	2
0	44097	48.9	2
0	44098	48.9	2
0	44099	48.9	2
0	44100	48.9	2
0	44101	48.9	2
0	44102	48.9	2
0	44133	48.95	2
0	44134	48.95	2
0	44135	48.95	2
0	44299	49	2
0	44300	49	2
0	44301	49	2
0	44302	49	2
0	44303	49	2
0	44304	49	2
0	44335	49.05	2
0	44336	49.05	2
0	44337	49.05	2
0	44364	49.1	2
0	44365	49.1	2
0	44366	49.1	2
0	44367	49.1	2
0	44368	49.1	2
0	44369	49.1	2
0	44403	49.15	2
0	44404	49.15	2
0	44405	49.15	2
0	44430	49.2	2
0	44431	49.2	2
0	44432	49.2	2
0	44433	49.2	2
0	44434	49.2	2
0	44435	49.2	2
0	44466	49.25	2
0	44467	49.25	2
0	44468	49.25	2
0	44493	49.3	2
0	44494	49.3	2
0	44495	49.3	2
0	44496	49.3	2
0	44497	49.3	2
0	44498	49.3	2
0	44529	49.35	2
0	44530	49.35	2
0	44531	49.35	2
0	44556	49.4	2
0	44557	49.4	2
0	44558	49.4	2
0	44559	49.4	2
0	44560	49.4	2
0	44561	49.4	2
0	44592	49.45	2
0	44593	49.45	2
0	44594	49.45	2
0	44619	49.5	2
0	44620	49.5	2
0	44621	49.5	2
0	44622	49.5	2
0	44623	49.5	2
0	44624	49.5	2
0	44795	49.55	2
0	44796	49.55	2
0	44797	49.55	2
0	44841	49.6	2
0	44842	49.6	2
0	44843	49.6	2
0	44844	49.6	2
0	44845	49.6	2
0	44846	49.6	2
0	44877	49.65	2
0	44878	49.65	2
0	44879	49.65	2
0	44904	49.7	2
0	44905	49.7	2
0	44906	49.7	2
0	44907	49.7	2
0	44908	49.7	2
0	44909	49.7	2
0	44940	49.75	2
0	44941	49.75	2
0	44942	49.75	2
0	44967	49.8	2
0	44968	49.8	2
0	44969	49.8	2
0	44970	49.8	2
0	44971	49.8	2
0	44972	49.8	2
0	45003	49.85	2
0	45004	49.85	2
0	45005	49.85	2
0	45030	49.9	2
0	45031	49.9	2
0	45032	49.9	2
0	45033	49.9	2
0	45034	49.9	2
0	45035	49.9	2
0	45066	49.95	2
0	45067	49.95	2
0	45068	49.95	2
0	45094	50	2
0	45095	50	2
0	45096	50	2
0	45097	50	2
0	45098	50	2
0	45099	50	2
1	37	0.1	-nan
1	39	0.1	-nan
1	671	1.1	-nan
1	672	1.1	-nan
1	1581	2.1	-nan
1	1582	2.1	-nan
1	2491	3.1	-nan
1	2492	3.1	-nan
1	3401	4.1	-nan
1	3402	4.1	-nan
1	4314	5.1	-nan
1	4315	5.1	-nan
1	5230	6.1	-nan
1	5231	6.1	-nan
1	6154	7.1	-nan
1	6155	7.1	-nan
1	7086	8.1	-nan
1	7087	8.1	-nan
1	8018	9.1	-nan
1	8019	9.1	-nan
1	8950	10.1	-nan
1	8951	10.1	-nan
1	9882	11.1	-nan
1	9883	11.1	-nan
1	10679	12.1	-nan
1	10680	12.1	-nan
1	11611	13.1	-nan
1	11612	13.1	-nan
1	12543	14.1	-nan
1	12544	14.1	-nan
1	13475	15.1	-nan
1	13476	15.1	-nan
1	14407	16.1	-nan
1	14408	16.1	-nan
1	15342	17.1	-nan
1	15343	17.1	-nan
1	16136	18.1	-nan
1	16137	18.1	-nan
1	17068	19.1	-nan
1	17069	19.1	-nan
1	18000	20.1	-nan
1	18001	20.1	-nan
1	18932	21.1	-nan
1	18933	21.1	-nan
1	19867	22.1	-nan
1	19868	22.1	-nan
1	20664	23.1	-nan
1	20665	23.1	-nan
1	21599	24.1	-nan
1	21600	24.1	-nan
1	22531	25.1	-nan
1	22532	25.1	-nan
1	23463	26.1	-nan
1	23464	26.1	-nan
1	24395	27.1	-nan
1	24396	27.1	-nan
1	25327	28.1	-nan
1	25328	28.1	-nan
1	26124	29.1	-nan
1	26125	29.1	-nan
1	27056	30.1	-nan
1	27057	30.1	-nan
1	27988	31.1	-nan
1	27989	31.1	-nan
1	28920	32.1	-nan
1	28921	32.1	-nan
1	29852	33.1	-nan
1	29853	33.1	-nan
1	30649	34.1	-nan
1	30650	34.1	-nan
1	31581	35.1	-nan
1	31582	35.1	-nan
1	32513	36.1	-nan
1	32514	36.1	-nan
1	33445	37.1	-nan
1	33446	37.1	-nan
1	34377	38.1	-nan
1	34378	38.1	-nan
1	35312	39.1	-nan
1	35313	39.1	-nan
1	36106	40.1	-nan
1	36107	40.1	-nan
1	37038	41.1	-nan
1	37039	41.1	-nan
1	37970	42.1	-nan
1	37971	42.1	-nan
1	38902	43.1	-nan
1	38903	43.1	-nan
1	39837	44.1	-nan
1	39838	44.1	-nan
1	40631	45.1	-nan
1	40632	45.1	-nan
1	41563	46.1	-nan
1	41564	46.1	-nan
1	42495	47.1	-nan
1	42496	47.1	-nan
1	43427	48.1	-nan
1	43428	48.1	-nan
1	44362	49.1	-nan
1	44363	49.1	-nan
2	5774	6.65277835206	141
2	5793	6.66661835206	282
2	5812	6.68045835206	423
2	5831	6.69429835206	564
2	5886	6.70813835206	705
2	5905	6.72197835206	846
2	5924	6.73581835206	987
2	6404	7.20277835206	1128
2	7399	8.30277835206	1269
2	8394	9.40277835206	1410
2	9389	10.50277835206	1551
2	10386	11.60277835206	1692
2	10893	12.15277835206	1833
2	11888	13.25277835206	1974
2	12883	14.35277835206	2115
2	13878	15.45277835206	2256
2	14875	16.55277835206	2397
2	15871	17.65277835206	2538
2	16386	18.20277835206	2679
2	17381	19.30277835206	2820
2	18376	20.40277835206	2961
2	19373	21.50277835206	3102
2	20371	22.60277835206	3243
2	20878	23.15277835206	3384
2	21876	24.25277835206	3525
2	22871	25.35277835206	3666
2	23866	26.45277835206	3807
2	24861	27.55277835206	3948
2	25858	28.65277835206	4089
2	26374	29.20277835206	4230
2	27369	30.30277835206	4371
2	28364	31.40277835206	4512
2	29359	32.50277835206	4653
2	30356	33.60277835206	4794
2	30863	34.15277835206	4935
2	31858	35.25277835206	5076
2	32853	36.35277835206	5217
2	33848	37.45277835206	5358
2	34845	38.55277835206	5499
2	35841	39.65277835206	5640
2	36356	40.20277835206	5781
2	37351	41.30277835206	5922
2	38346	42.40277835206	6063
2	39343	43.50277835206	6204
2	40339	44.60277835206	6345
2	40845	45.15277835206	6486
2	41840	46.25277835206	6627
2	42835	47.35277835206	6768
2	43830	48.45277835206	6909
2	44828	49.55277835206	7050
3	5774	6.65277835206	141
3	5793	6.66661835206	282
3	5812	6.68045835206	423
3	5831	6.69429835206	564
3	5886	6.70813835206	705
3	5905	6.72197835206	846
3	5924	6.73581835206	987
3	6404	7.20277835206	1128
3	7399	8.30277835206	1269
3	8394	9.40277835206	1410
3	9389	10.50277835206	1551
3	10386	11.60277835206	1692
3	10893	12.15277835206	1833
3	11888	13.25277835206	1974
3	12883	14.35277835206	2115
3	13878	15.45277835206	2256
3	14875	16.55277835206	2397
3	15871	17.65277835206	2538
3	16386	18.20277835206	2679
3	17381	19.30277835206	2820
3	18376	20.40277835206	2961
3	19373	21.50277835206	3102
3	20371	22.60277835206	3243
3	20878	23.15277835206	3384
3	21876	24.25277835206	3525
3	22871	25.35277835206	3666
3	23866	26.45277835206	3807
3	24861	27.55277835206	3948
3	25858	28.65277835206	4089
3	26374	29.20277835206	4230
3	27369	30.30277835206	4371
3	28364	31.40277835206	4512
3	29359	32.50277835206	4653
3	30356	33.60277835206	4794
3	30863	34.15277835206	4935
3	31858	35.25277835206	5076
3	32853	36.35277835206	5217
3	33848	37.45277835206	5358
3	34845	38.55277835206	5499
3	35841	39.65277835206	5640
3	36356	40.20277835206	5781
3	37351	41.30277835206	5922
3	38346	42.40277835206	6063
3	39343	43.50277835206	6204
3	40339	44.60277835206	6345
3	40845	45.15277835206	6486
3	41840	46.25277835206	6627
3	42835	47.35277835206	6768
3	43830	48.45277835206	6909
3	44828	49.55277835206	7050

