version 2
run A2-0-20190917-02:50:00-15202
attr configname A2
attr datetime 20190917-02:50:00
attr experiment A2
attr inifile SimV2.ini
attr iterationvars ""
attr iterationvarsf ""
attr measurement ""
attr network NetworkTormV2
attr processid 15202
attr repetition 0
attr replication #0
attr resultdir results
attr runnumber 0
attr seedset 0
param **.mobility.traceFile "\"paths/A.movements\""
param **.numNodes 3
param **.wirelessIfc.wirelessRange 40m
param **.bluetoothIfc.wirelessRange 40m
param **application.destinationAddr "\"Wf:00:00:00:00:02\""
param **application.destinationBTAddr "\"Bt:00:00:00:00:02\""
param **application.nodesThatGen true
param **application.nodesGenMsg "\"0,1\""
param **application.startMultipleMsg true
param **application.numMultipleMsg 100
param **application.hopsListSize 50
param **.numNodes 2
param **.application.usedRNG 1
param **.application.dataGenerationInterval 1ms
param **.application.dataSizeInBytes 10
param **.application.ttl 999999s
param **application.destinationAddr "\"Wf:00:00:00:00:02\""
param **application.destinationBTAddr "\"Bt:00:00:00:00:02\""
param **application.nodesThatGen true
param **application.nodesGenMsg "\"0\""
param **application.startMultipleMsg true
param **application.numMultipleMsg 100
param **application.hopsListSize 50
param **.application.endGeneratingMsg 999999s
param **.routingLayer "\"RoutingLayer\""
param **.routing.maximumCacheSize 5000byte
param **.routing.maximumHopCount 25
param **.routing.useTTL false
param **.routing.waitBFsend 0.5
param **.routing.max_age 999999s
param **.neighboring.antiEntropyInterval 500ms
param **.neighboring.maximumRandomBackoffDuration 1s
param **.neighboring.delayPerDataMsg 0.1
param **neighboring.usedRNG 2
param **.neighboring.GWAddr "\"02:00:00:00:00:09\""
param **.neighboring.sendWifiFirst true
param **.neighboring.maxLengthGraph 20
param **.neighboring.max_age 999999s
param **.wirelessIfc.wirelessRange 15m
param **.wirelessIfc.neighbourScanInterval 50ms
param **.wirelessIfc.bandwidthBitRate 100000bps
param **.wirelessIfc.wirelessHeaderSize 32byte
param **.wirelessIfc.minSSI -90
param **.wirelessIfc.limitQueueTime 500ms
param **.bluetoothIfc.wirelessRange 15m
param **.bluetoothIfc.neighbourScanInterval 100ms
param **.bluetoothIfc.bandwidthBitRate 100000bps
param **.bluetoothIfc.wirelessHeaderSize 16byte
param **.bluetoothIfc.minSSI -90
param **.mobilityType "\"BonnMotionMobility\""
param **.mobility.traceFile "\"paths/Moves2.movements\""
param **.mobility.is3D false
param **.mobility.nodeId -1

vector 0 NetworkTormV2 neighbourhoodSize:vector ETV
attr source neighbourhoodSize
vector 1 NetworkTormV2 deliveryRatio:vector ETV
attr source sum(totalDataBytesReceived)/sum(totalDataBytesReceivableByAllNodes)
vector 2 NetworkTormV2 dataBytesReceivedSum:vector ETV
attr source sum(dataBytesReceived)
vector 3 NetworkTormV2 totalBytesReceivedSum:vector ETV
attr source sum(totalBytesReceived)
0	10	0.05	1
0	11	0.05	2
0	12	0.05	1
0	20	0.1	1
0	22	0.1	2
0	23	0.1	1
0	24	0.1	1
0	25	0.1	2
0	26	0.1	1
0	237	0.15	1
0	238	0.15	2
0	239	0.15	1
0	446	0.2	1
0	447	0.2	2
0	448	0.2	1
0	449	0.2	1
0	450	0.2	2
0	451	0.2	1
0	464	0.25	1
0	465	0.25	2
0	466	0.25	1
0	473	0.3	1
0	474	0.3	2
0	475	0.3	1
0	476	0.3	1
0	477	0.3	2
0	478	0.3	1
0	491	0.35	1
0	492	0.35	2
0	493	0.35	1
0	500	0.4	1
0	501	0.4	2
0	502	0.4	1
0	503	0.4	1
0	504	0.4	2
0	505	0.4	1
0	518	0.45	1
0	519	0.45	2
0	520	0.45	1
0	527	0.5	1
0	528	0.5	2
0	529	0.5	1
0	530	0.5	1
0	531	0.5	2
0	532	0.5	1
0	545	0.55	1
0	546	0.55	2
0	547	0.55	1
0	554	0.6	1
0	555	0.6	2
0	556	0.6	1
0	557	0.6	1
0	558	0.6	2
0	559	0.6	1
0	572	0.65	1
0	573	0.65	2
0	574	0.65	1
0	581	0.7	1
0	582	0.7	2
0	583	0.7	1
0	584	0.7	1
0	585	0.7	2
0	586	0.7	1
0	599	0.75	1
0	600	0.75	2
0	601	0.75	1
0	608	0.8	1
0	609	0.8	2
0	610	0.8	1
0	611	0.8	1
0	612	0.8	2
0	613	0.8	1
0	626	0.85	1
0	627	0.85	2
0	628	0.85	1
0	635	0.9	1
0	636	0.9	2
0	637	0.9	1
0	638	0.9	1
0	639	0.9	2
0	640	0.9	1
0	653	0.95	1
0	654	0.95	2
0	655	0.95	1
0	662	1	1
0	663	1	2
0	664	1	1
0	665	1	1
0	666	1	2
0	667	1	1
0	680	1.05	1
0	681	1.05	2
0	682	1.05	1
0	689	1.1	1
0	690	1.1	2
0	691	1.1	1
0	692	1.1	1
0	693	1.1	2
0	694	1.1	1
0	969	1.15	1
0	970	1.15	2
0	971	1.15	1
0	1014	1.2	1
0	1015	1.2	2
0	1016	1.2	1
0	1017	1.2	1
0	1018	1.2	2
0	1019	1.2	1
0	1066	1.25	1
0	1067	1.25	2
0	1068	1.25	1
0	1115	1.3	1
0	1116	1.3	2
0	1117	1.3	1
0	1118	1.3	1
0	1119	1.3	2
0	1120	1.3	1
0	1163	1.35	1
0	1164	1.35	2
0	1165	1.35	1
0	1212	1.4	1
0	1213	1.4	2
0	1214	1.4	1
0	1215	1.4	1
0	1216	1.4	2
0	1217	1.4	1
0	1261	1.45	1
0	1262	1.45	2
0	1263	1.45	1
0	1297	1.5	1
0	1298	1.5	2
0	1299	1.5	1
0	1300	1.5	1
0	1301	1.5	2
0	1302	1.5	1
0	1355	1.55	1
0	1356	1.55	2
0	1357	1.55	1
0	1391	1.6	1
0	1392	1.6	2
0	1393	1.6	1
0	1394	1.6	1
0	1395	1.6	2
0	1396	1.6	1
0	1443	1.65	1
0	1444	1.65	2
0	1445	1.65	1
0	1511	1.7	1
0	1512	1.7	2
0	1513	1.7	1
0	1514	1.7	1
0	1515	1.7	2
0	1516	1.7	1
0	1559	1.75	1
0	1560	1.75	2
0	1561	1.75	1
0	1599	1.8	1
0	1600	1.8	2
0	1601	1.8	1
0	1602	1.8	1
0	1603	1.8	2
0	1604	1.8	1
0	1650	1.85	1
0	1651	1.85	2
0	1652	1.85	1
0	1693	1.9	1
0	1694	1.9	2
0	1695	1.9	1
0	1696	1.9	1
0	1697	1.9	2
0	1698	1.9	1
0	1748	1.95	1
0	1749	1.95	2
0	1750	1.95	1
0	1787	2	1
0	1788	2	2
0	1789	2	1
0	1790	2	1
0	1791	2	2
0	1792	2	1
0	1842	2.05	1
0	1843	2.05	2
0	1844	2.05	1
0	1887	2.1	1
0	1888	2.1	2
0	1889	2.1	1
0	1890	2.1	1
0	1891	2.1	2
0	1892	2.1	1
0	1936	2.15	1
0	1937	2.15	2
0	1938	2.15	1
0	1985	2.2	1
0	1986	2.2	2
0	1987	2.2	1
0	1988	2.2	1
0	1989	2.2	2
0	1990	2.2	1
0	2043	2.25	1
0	2044	2.25	2
0	2045	2.25	1
0	2086	2.3	1
0	2087	2.3	2
0	2088	2.3	1
0	2089	2.3	1
0	2090	2.3	2
0	2091	2.3	1
0	2144	2.35	1
0	2145	2.35	2
0	2146	2.35	1
0	2183	2.4	1
0	2184	2.4	2
0	2185	2.4	1
0	2186	2.4	1
0	2187	2.4	2
0	2188	2.4	1
0	2232	2.45	1
0	2233	2.45	2
0	2234	2.45	1
0	2277	2.5	1
0	2278	2.5	2
0	2279	2.5	1
0	2280	2.5	1
0	2281	2.5	2
0	2282	2.5	1
0	2313	2.55	1
0	2314	2.55	2
0	2315	2.55	1
1	19	0.1	-nan
1	21	0.1	-nan
1	41	0.101	-nan
1	42	0.101	-nan
1	45	0.102	-nan
1	46	0.102	-nan
1	49	0.103	-nan
1	50	0.103	-nan
1	53	0.104	-nan
1	54	0.104	-nan
1	57	0.105	-nan
1	58	0.105	-nan
1	61	0.106	-nan
1	62	0.106	-nan
1	65	0.107	-nan
1	66	0.107	-nan
1	69	0.108	-nan
1	70	0.108	-nan
1	73	0.109	-nan
1	74	0.109	-nan
1	77	0.11	-nan
1	78	0.11	-nan
1	81	0.111	-nan
1	82	0.111	-nan
1	85	0.112	-nan
1	86	0.112	-nan
1	89	0.113	-nan
1	90	0.113	-nan
1	93	0.114	-nan
1	94	0.114	-nan
1	97	0.115	-nan
1	98	0.115	-nan
1	101	0.116	-nan
1	102	0.116	-nan
1	105	0.117	-nan
1	106	0.117	-nan
1	109	0.118	-nan
1	110	0.118	-nan
1	113	0.119	-nan
1	114	0.119	-nan
1	117	0.12	-nan
1	118	0.12	-nan
1	121	0.121	-nan
1	122	0.121	-nan
1	125	0.122	-nan
1	126	0.122	-nan
1	129	0.123	-nan
1	130	0.123	-nan
1	133	0.124	-nan
1	134	0.124	-nan
1	137	0.125	-nan
1	138	0.125	-nan
1	141	0.126	-nan
1	142	0.126	-nan
1	145	0.127	-nan
1	146	0.127	-nan
1	149	0.128	-nan
1	150	0.128	-nan
1	153	0.129	-nan
1	154	0.129	-nan
1	157	0.13	-nan
1	158	0.13	-nan
1	161	0.131	-nan
1	162	0.131	-nan
1	165	0.132	-nan
1	166	0.132	-nan
1	169	0.133	-nan
1	170	0.133	-nan
1	173	0.134	-nan
1	174	0.134	-nan
1	177	0.135	-nan
1	178	0.135	-nan
1	181	0.136	-nan
1	182	0.136	-nan
1	185	0.137	-nan
1	186	0.137	-nan
1	189	0.138	-nan
1	190	0.138	-nan
1	193	0.139	-nan
1	194	0.139	-nan
1	197	0.14	-nan
1	198	0.14	-nan
1	201	0.141	-nan
1	202	0.141	-nan
1	205	0.142	-nan
1	206	0.142	-nan
1	209	0.143	-nan
1	210	0.143	-nan
1	213	0.144	-nan
1	214	0.144	-nan
1	217	0.145	-nan
1	218	0.145	-nan
1	221	0.146	-nan
1	222	0.146	-nan
1	225	0.147	-nan
1	226	0.147	-nan
1	229	0.148	-nan
1	230	0.148	-nan
1	233	0.149	-nan
1	234	0.149	-nan
1	240	0.15	-nan
1	241	0.15	-nan
1	250	0.151	-nan
1	251	0.151	-nan
1	254	0.152	-nan
1	255	0.152	-nan
1	258	0.153	-nan
1	259	0.153	-nan
1	262	0.154	-nan
1	263	0.154	-nan
1	266	0.155	-nan
1	267	0.155	-nan
1	270	0.156	-nan
1	271	0.156	-nan
1	274	0.157	-nan
1	275	0.157	-nan
1	278	0.158	-nan
1	279	0.158	-nan
1	282	0.159	-nan
1	283	0.159	-nan
1	286	0.16	-nan
1	287	0.16	-nan
1	290	0.161	-nan
1	291	0.161	-nan
1	294	0.162	-nan
1	295	0.162	-nan
1	298	0.163	-nan
1	299	0.163	-nan
1	302	0.164	-nan
1	303	0.164	-nan
1	306	0.165	-nan
1	307	0.165	-nan
1	310	0.166	-nan
1	311	0.166	-nan
1	314	0.167	-nan
1	315	0.167	-nan
1	318	0.168	-nan
1	319	0.168	-nan
1	322	0.169	-nan
1	323	0.169	-nan
1	326	0.17	-nan
1	327	0.17	-nan
1	330	0.171	-nan
1	331	0.171	-nan
1	334	0.172	-nan
1	335	0.172	-nan
1	338	0.173	-nan
1	339	0.173	-nan
1	342	0.174	-nan
1	343	0.174	-nan
1	346	0.175	-nan
1	347	0.175	-nan
1	350	0.176	-nan
1	351	0.176	-nan
1	354	0.177	-nan
1	355	0.177	-nan
1	358	0.178	-nan
1	359	0.178	-nan
1	362	0.179	-nan
1	363	0.179	-nan
1	366	0.18	-nan
1	367	0.18	-nan
1	370	0.181	-nan
1	371	0.181	-nan
1	374	0.182	-nan
1	375	0.182	-nan
1	378	0.183	-nan
1	379	0.183	-nan
1	382	0.184	-nan
1	383	0.184	-nan
1	386	0.185	-nan
1	387	0.185	-nan
1	390	0.186	-nan
1	391	0.186	-nan
1	394	0.187	-nan
1	395	0.187	-nan
1	398	0.188	-nan
1	399	0.188	-nan
1	402	0.189	-nan
1	403	0.189	-nan
1	406	0.19	-nan
1	407	0.19	-nan
1	410	0.191	-nan
1	411	0.191	-nan
1	414	0.192	-nan
1	415	0.192	-nan
1	418	0.193	-nan
1	419	0.193	-nan
1	422	0.194	-nan
1	423	0.194	-nan
1	426	0.195	-nan
1	427	0.195	-nan
1	430	0.196	-nan
1	431	0.196	-nan
1	434	0.197	-nan
1	435	0.197	-nan
1	438	0.198	-nan
1	439	0.198	-nan
1	442	0.199	-nan
1	443	0.199	-nan
2	962	1.142624192201	141
2	981	1.156464192201	282
2	991	1.170304192201	423
2	1001	1.184144192201	564
2	1011	1.197984192201	705
2	1039	1.211824192201	846
2	1049	1.225664192201	987
2	1059	1.239504192201	1128
2	1078	1.253344192201	1269
2	1088	1.267184192201	1410
2	1098	1.281024192201	1551
2	1108	1.294864192201	1692
2	1136	1.308704192201	1833
2	1146	1.322544192201	1974
2	1156	1.336384192201	2115
2	1175	1.350224192201	2256
2	1185	1.364064192201	2397
2	1195	1.377904192201	2538
2	1205	1.391744192201	2679
2	1234	1.419424192201	2820
2	1244	1.433264192201	2961
2	1254	1.447104192201	3102
2	1273	1.460944192201	3243
2	1283	1.474784192201	3384
2	1293	1.488624192201	3525
2	1318	1.502464192201	3666
2	1328	1.516304192201	3807
2	1338	1.530144192201	3948
2	1348	1.543984192201	4089
2	1367	1.557824192201	4230
2	1377	1.571664192201	4371
2	1388	1.599344192201	4512
2	1416	1.613184192201	4653
2	1426	1.627024192201	4794
2	1436	1.640864192201	4935
2	1463	1.654704192201	5076
2	1487	1.668544192201	5217
2	1497	1.682384192201	5358
2	1507	1.696224192201	5499
2	1532	1.710064192201	5640
2	1542	1.723904192201	5781
2	1552	1.737744192201	5922
2	1571	1.751584192201	6063
2	1581	1.765424192201	6204
2	1592	1.793104192201	6345
2	1620	1.806944192201	6486
2	1630	1.820784192201	6627
2	1637	1.834624192201	6768
2	1647	1.848464192201	6909
2	1666	1.862304192201	7050
2	1676	1.876144192201	7191
2	1686	1.889984192201	7332
2	1714	1.903824192201	7473
2	1724	1.917664192201	7614
2	1734	1.931504192201	7755
2	1744	1.945344192201	7896
2	1760	1.959184192201	8037
2	1770	1.973024192201	8178
2	1780	1.986864192201	8319
2	1808	2.000704192201	8460
2	1815	2.014544192201	8601
2	1825	2.028384192201	8742
2	1835	2.042224192201	8883
2	1854	2.056064192201	9024
2	1864	2.069904192201	9165
2	1874	2.083744192201	9306
2	1884	2.097584192201	9447
2	1912	2.111424192201	9588
2	1922	2.125264192201	9729
2	1932	2.139104192201	9870
2	1948	2.152944192201	10011
2	1958	2.166784192201	10152
2	1968	2.180624192201	10293
2	1978	2.194464192201	10434
2	2010	2.208304192201	10575
2	2020	2.222144192201	10716
2	2030	2.235984192201	10857
2	2040	2.249824192201	10998
2	2059	2.263664192201	11139
2	2069	2.277504192201	11280
2	2079	2.291344192201	11421
2	2107	2.305184192201	11562
2	2117	2.319024192201	11703
2	2127	2.332864192201	11844
2	2137	2.346704192201	11985
2	2156	2.360544192201	12126
2	2166	2.374384192201	12267
2	2176	2.388224192201	12408
2	2205	2.415904192201	12549
2	2215	2.429744192201	12690
2	2225	2.443584192201	12831
2	2244	2.457424192201	12972
2	2254	2.471264192201	13113
2	2264	2.485104192201	13254
2	2274	2.498944192201	13395
2	2302	2.512784192201	13536
2	2367	2.579413385287	13677
2	2377	2.593253385287	13818
3	962	1.142624192201	141
3	981	1.156464192201	282
3	991	1.170304192201	423
3	1001	1.184144192201	564
3	1011	1.197984192201	705
3	1039	1.211824192201	846
3	1049	1.225664192201	987
3	1059	1.239504192201	1128
3	1078	1.253344192201	1269
3	1088	1.267184192201	1410
3	1098	1.281024192201	1551
3	1108	1.294864192201	1692
3	1136	1.308704192201	1833
3	1146	1.322544192201	1974
3	1156	1.336384192201	2115
3	1175	1.350224192201	2256
3	1185	1.364064192201	2397
3	1195	1.377904192201	2538
3	1205	1.391744192201	2679
3	1234	1.419424192201	2820
3	1244	1.433264192201	2961
3	1254	1.447104192201	3102
3	1273	1.460944192201	3243
3	1283	1.474784192201	3384
3	1293	1.488624192201	3525
3	1318	1.502464192201	3666
3	1328	1.516304192201	3807
3	1338	1.530144192201	3948
3	1348	1.543984192201	4089
3	1367	1.557824192201	4230
3	1377	1.571664192201	4371
3	1388	1.599344192201	4512
3	1416	1.613184192201	4653
3	1426	1.627024192201	4794
3	1436	1.640864192201	4935
3	1463	1.654704192201	5076
3	1487	1.668544192201	5217
3	1497	1.682384192201	5358
3	1507	1.696224192201	5499
3	1532	1.710064192201	5640
3	1542	1.723904192201	5781
3	1552	1.737744192201	5922
3	1571	1.751584192201	6063
3	1581	1.765424192201	6204
3	1592	1.793104192201	6345
3	1620	1.806944192201	6486
3	1630	1.820784192201	6627
3	1637	1.834624192201	6768
3	1647	1.848464192201	6909
3	1666	1.862304192201	7050
3	1676	1.876144192201	7191
3	1686	1.889984192201	7332
3	1714	1.903824192201	7473
3	1724	1.917664192201	7614
3	1734	1.931504192201	7755
3	1744	1.945344192201	7896
3	1760	1.959184192201	8037
3	1770	1.973024192201	8178
3	1780	1.986864192201	8319
3	1808	2.000704192201	8460
3	1815	2.014544192201	8601
3	1825	2.028384192201	8742
3	1835	2.042224192201	8883
3	1854	2.056064192201	9024
3	1864	2.069904192201	9165
3	1874	2.083744192201	9306
3	1884	2.097584192201	9447
3	1912	2.111424192201	9588
3	1922	2.125264192201	9729
3	1932	2.139104192201	9870
3	1948	2.152944192201	10011
3	1958	2.166784192201	10152
3	1968	2.180624192201	10293
3	1978	2.194464192201	10434
3	2010	2.208304192201	10575
3	2020	2.222144192201	10716
3	2030	2.235984192201	10857
3	2040	2.249824192201	10998
3	2059	2.263664192201	11139
3	2069	2.277504192201	11280
3	2079	2.291344192201	11421
3	2107	2.305184192201	11562
3	2117	2.319024192201	11703
3	2127	2.332864192201	11844
3	2137	2.346704192201	11985
3	2156	2.360544192201	12126
3	2166	2.374384192201	12267
3	2176	2.388224192201	12408
3	2205	2.415904192201	12549
3	2215	2.429744192201	12690
3	2225	2.443584192201	12831
3	2244	2.457424192201	12972
3	2254	2.471264192201	13113
3	2264	2.485104192201	13254
3	2274	2.498944192201	13395
3	2302	2.512784192201	13536
3	2367	2.579413385287	13677
3	2377	2.593253385287	13818

