version 2
run B-0-20190915-21:00:11-6133
attr configname B
attr datetime 20190915-21:00:11
attr experiment B
attr inifile SimV2.ini
attr iterationvars ""
attr iterationvarsf ""
attr measurement ""
attr network NetworkTormV2
attr processid 6133
attr repetition 0
attr replication #0
attr resultdir results
attr runnumber 0
attr seedset 0
param **.mobility.traceFile "\"paths/B.movements\""
param **.numNodes 4
param **.wirelessIfc.wirelessRange 40m
param **.bluetoothIfc.wirelessRange 40m
param **application.destinationAddr "\"Wf:00:00:00:00:02\""
param **application.destinationBTAddr "\"Bt:00:00:00:00:02\""
param **application.nodesThatGen true
param **application.nodesGenMsg "\"0,1\""
param **application.startMultipleMsg true
param **application.numMultipleMsg 100
param **application.hopsListSize 50
param **.numNodes 2
param **.application.usedRNG 1
param **.application.dataGenerationInterval 1ms
param **.application.dataSizeInBytes 10
param **.application.ttl 999999s
param **application.destinationAddr "\"Wf:00:00:00:00:02\""
param **application.destinationBTAddr "\"Bt:00:00:00:00:02\""
param **application.nodesThatGen true
param **application.nodesGenMsg "\"0\""
param **application.startMultipleMsg true
param **application.numMultipleMsg 100
param **application.hopsListSize 50
param **.routingLayer "\"RoutingLayer\""
param **.routing.maximumCacheSize 5000byte
param **.routing.maximumHopCount 25
param **.routing.useTTL false
param **.routing.waitBFsend 0.5
param **.routing.max_age 999999s
param **.neighboring.antiEntropyInterval 500ms
param **.neighboring.maximumRandomBackoffDuration 1s
param **.neighboring.delayPerDataMsg 0.1
param **neighboring.usedRNG 2
param **.neighboring.GWAddr "\"02:00:00:00:00:09\""
param **.neighboring.sendWifiFirst true
param **.neighboring.maxLengthGraph 20
param **.neighboring.max_age 999999s
param **.wirelessIfc.wirelessRange 15m
param **.wirelessIfc.neighbourScanInterval 50ms
param **.wirelessIfc.bandwidthBitRate 100000bps
param **.wirelessIfc.wirelessHeaderSize 32byte
param **.wirelessIfc.minSSI -90
param **.bluetoothIfc.wirelessRange 15m
param **.bluetoothIfc.neighbourScanInterval 100ms
param **.bluetoothIfc.bandwidthBitRate 100000bps
param **.bluetoothIfc.wirelessHeaderSize 16byte
param **.bluetoothIfc.minSSI -90
param **.mobilityType "\"BonnMotionMobility\""
param **.mobility.traceFile "\"paths/Moves2.movements\""
param **.mobility.is3D false
param **.mobility.nodeId -1

vector 0 NetworkTormV2 neighbourhoodSize:vector ETV
attr source neighbourhoodSize
vector 1 NetworkTormV2 deliveryRatio:vector ETV
attr source sum(totalDataBytesReceived)/sum(totalDataBytesReceivableByAllNodes)
vector 2 NetworkTormV2 dataBytesReceivedSum:vector ETV
attr source sum(dataBytesReceived)
vector 3 NetworkTormV2 totalBytesReceivedSum:vector ETV
attr source sum(totalBytesReceived)
0	13	0.05	2
0	14	0.05	2
0	15	0.05	2
0	16	0.05	2
0	26	0.1	2
0	28	0.1	2
0	29	0.1	2
0	30	0.1	2
0	31	0.1	2
0	32	0.1	2
0	33	0.1	2
0	34	0.1	2
0	249	0.15	2
0	250	0.15	2
0	251	0.15	2
0	252	0.15	2
0	461	0.2	2
0	462	0.2	2
0	463	0.2	2
0	464	0.2	2
0	465	0.2	2
0	466	0.2	2
0	467	0.2	2
0	468	0.2	2
0	485	0.25	2
0	486	0.25	2
0	487	0.25	2
0	488	0.25	2
0	497	0.3	2
0	498	0.3	2
0	499	0.3	2
0	500	0.3	2
0	501	0.3	2
0	502	0.3	2
0	503	0.3	2
0	504	0.3	2
0	521	0.35	2
0	522	0.35	2
0	523	0.35	2
0	524	0.35	2
0	533	0.4	2
0	534	0.4	2
0	535	0.4	2
0	536	0.4	2
0	537	0.4	2
0	538	0.4	2
0	539	0.4	2
0	540	0.4	2
0	557	0.45	2
0	558	0.45	2
0	559	0.45	2
0	560	0.45	2
0	569	0.5	2
0	570	0.5	2
0	571	0.5	2
0	572	0.5	2
0	573	0.5	2
0	574	0.5	2
0	575	0.5	2
0	576	0.5	2
0	593	0.55	2
0	594	0.55	2
0	595	0.55	2
0	596	0.55	2
0	605	0.6	2
0	606	0.6	2
0	607	0.6	2
0	608	0.6	2
0	609	0.6	2
0	610	0.6	2
0	611	0.6	2
0	612	0.6	2
0	629	0.65	2
0	630	0.65	2
0	631	0.65	2
0	632	0.65	2
0	641	0.7	2
0	642	0.7	2
0	643	0.7	2
0	644	0.7	2
0	645	0.7	2
0	646	0.7	2
0	647	0.7	2
0	648	0.7	2
0	665	0.75	2
0	666	0.75	2
0	667	0.75	2
0	668	0.75	2
0	677	0.8	2
0	678	0.8	2
0	679	0.8	2
0	680	0.8	2
0	681	0.8	2
0	682	0.8	2
0	683	0.8	2
0	684	0.8	2
0	701	0.85	2
0	702	0.85	2
0	703	0.85	2
0	704	0.85	2
0	713	0.9	2
0	714	0.9	2
0	715	0.9	2
0	716	0.9	2
0	717	0.9	2
0	718	0.9	2
0	719	0.9	2
0	720	0.9	2
0	737	0.95	2
0	738	0.95	2
0	739	0.95	2
0	740	0.95	2
0	749	1	2
0	750	1	2
0	751	1	2
0	752	1	2
0	753	1	2
0	754	1	2
0	755	1	2
0	756	1	2
0	773	1.05	2
0	774	1.05	2
0	775	1.05	2
0	776	1.05	2
0	785	1.1	2
0	786	1.1	2
0	787	1.1	2
0	788	1.1	2
0	789	1.1	2
0	790	1.1	2
0	791	1.1	2
0	792	1.1	2
0	1063	1.15	2
0	1064	1.15	2
0	1065	1.15	2
0	1066	1.15	2
0	1103	1.2	2
0	1104	1.2	2
0	1105	1.2	2
0	1106	1.2	2
0	1107	1.2	2
0	1108	1.2	2
0	1109	1.2	2
0	1110	1.2	2
0	1145	1.25	2
0	1146	1.25	2
0	1147	1.25	2
0	1148	1.25	2
0	1185	1.3	2
0	1186	1.3	2
0	1187	1.3	2
0	1188	1.3	2
0	1189	1.3	2
0	1190	1.3	2
0	1191	1.3	2
0	1192	1.3	2
0	1228	1.35	2
0	1229	1.35	2
0	1230	1.35	2
0	1231	1.35	2
0	1261	1.4	2
0	1262	1.4	2
0	1263	1.4	2
0	1264	1.4	2
0	1265	1.4	2
0	1266	1.4	2
0	1267	1.4	2
0	1268	1.4	2
0	1313	1.45	2
0	1314	1.45	2
0	1315	1.45	2
0	1316	1.45	2
0	1338	1.5	2
0	1339	1.5	2
0	1340	1.5	2
0	1341	1.5	2
0	1342	1.5	2
0	1343	1.5	2
0	1344	1.5	2
0	1345	1.5	2
0	1377	1.55	2
0	1378	1.55	2
0	1379	1.55	2
0	1380	1.55	2
0	1411	1.6	2
0	1412	1.6	2
0	1413	1.6	2
0	1414	1.6	2
0	1415	1.6	2
0	1416	1.6	2
0	1417	1.6	2
0	1418	1.6	2
0	1465	1.65	2
0	1466	1.65	2
0	1467	1.65	2
0	1468	1.65	2
0	1517	1.7	2
0	1518	1.7	2
0	1519	1.7	2
0	1520	1.7	2
0	1521	1.7	2
0	1522	1.7	2
0	1523	1.7	2
0	1524	1.7	2
0	1551	1.75	2
0	1552	1.75	2
0	1553	1.75	2
0	1554	1.75	2
0	1581	1.8	2
0	1582	1.8	2
0	1583	1.8	2
0	1584	1.8	2
0	1585	1.8	2
0	1586	1.8	2
0	1587	1.8	2
0	1588	1.8	2
0	1629	1.85	2
0	1630	1.85	2
0	1631	1.85	2
0	1632	1.85	2
0	1657	1.9	2
0	1658	1.9	2
0	1659	1.9	2
0	1660	1.9	2
0	1661	1.9	2
0	1662	1.9	2
0	1663	1.9	2
0	1664	1.9	2
0	1696	1.95	2
0	1697	1.95	2
0	1698	1.95	2
0	1699	1.95	2
0	1736	2	2
0	1737	2	2
0	1738	2	2
0	1739	2	2
0	1740	2	2
0	1741	2	2
0	1742	2	2
0	1743	2	2
0	1772	2.05	2
0	1773	2.05	2
0	1774	2.05	2
0	1775	2.05	2
0	1815	2.1	2
0	1816	2.1	2
0	1817	2.1	2
0	1818	2.1	2
0	1819	2.1	2
0	1820	2.1	2
0	1821	2.1	2
0	1822	2.1	2
0	1848	2.15	2
0	1849	2.15	2
0	1850	2.15	2
0	1851	2.15	2
0	1879	2.2	2
0	1880	2.2	2
0	1881	2.2	2
0	1882	2.2	2
0	1883	2.2	2
0	1884	2.2	2
0	1885	2.2	2
0	1886	2.2	2
0	1931	2.25	2
0	1932	2.25	2
0	1933	2.25	2
0	1934	2.25	2
0	1964	2.3	2
0	1965	2.3	2
0	1966	2.3	2
0	1967	2.3	2
0	1968	2.3	2
0	1969	2.3	2
0	1970	2.3	2
0	1971	2.3	2
0	2010	2.35	2
0	2011	2.35	2
0	2012	2.35	2
0	2013	2.35	2
0	2058	2.4	2
0	2059	2.4	2
0	2060	2.4	2
0	2061	2.4	2
0	2062	2.4	2
0	2063	2.4	2
0	2064	2.4	2
0	2065	2.4	2
0	2104	2.45	2
0	2105	2.45	2
0	2106	2.45	2
0	2107	2.45	2
0	2144	2.5	2
0	2145	2.5	2
0	2146	2.5	2
0	2147	2.5	2
0	2148	2.5	2
0	2149	2.5	2
0	2150	2.5	2
0	2151	2.5	2
0	2314	2.55	2
0	2315	2.55	2
0	2316	2.55	2
0	2317	2.55	2
0	2354	2.6	2
0	2355	2.6	2
0	2356	2.6	2
0	2357	2.6	2
0	2358	2.6	2
0	2359	2.6	2
0	2360	2.6	2
0	2361	2.6	2
0	2399	2.65	2
0	2400	2.65	2
0	2401	2.65	2
0	2402	2.65	2
0	2451	2.7	2
0	2452	2.7	2
0	2453	2.7	2
0	2454	2.7	2
0	2455	2.7	2
0	2456	2.7	2
0	2457	2.7	2
0	2458	2.7	2
0	2549	2.75	2
0	2550	2.75	2
0	2551	2.75	2
0	2552	2.75	2
0	2577	2.8	2
0	2578	2.8	2
0	2579	2.8	2
0	2580	2.8	2
0	2581	2.8	2
0	2582	2.8	2
0	2583	2.8	2
0	2584	2.8	2
0	2605	2.85	2
0	2606	2.85	2
0	2607	2.85	2
0	2608	2.85	2
0	2648	2.9	2
0	2649	2.9	2
0	2650	2.9	2
0	2651	2.9	2
0	2652	2.9	2
0	2653	2.9	2
0	2654	2.9	2
0	2655	2.9	2
0	2685	2.95	2
0	2686	2.95	2
0	2687	2.95	2
0	2688	2.95	2
0	2733	3	2
0	2734	3	2
0	2735	3	2
0	2736	3	2
0	2737	3	2
0	2738	3	2
0	2739	3	2
0	2740	3	2
0	2779	3.05	2
0	2780	3.05	2
0	2781	3.05	2
0	2782	3.05	2
0	2822	3.1	2
0	2823	3.1	2
0	2824	3.1	2
0	2825	3.1	2
0	2826	3.1	2
0	2827	3.1	2
0	2828	3.1	2
0	2829	3.1	2
0	2876	3.15	2
0	2877	3.15	2
0	2878	3.15	2
0	2879	3.15	2
0	2925	3.2	2
0	2926	3.2	2
0	2927	3.2	2
0	2928	3.2	2
0	2929	3.2	2
0	2930	3.2	2
0	2931	3.2	2
0	2932	3.2	2
0	2971	3.25	2
0	2972	3.25	2
0	2973	3.25	2
0	2974	3.25	2
0	3016	3.3	2
0	3017	3.3	2
0	3018	3.3	2
0	3019	3.3	2
0	3020	3.3	2
0	3021	3.3	2
0	3022	3.3	2
0	3023	3.3	2
0	3054	3.35	2
0	3055	3.35	2
0	3056	3.35	2
0	3057	3.35	2
0	3066	3.4	2
0	3067	3.4	2
0	3068	3.4	2
0	3069	3.4	2
0	3070	3.4	2
0	3071	3.4	2
0	3072	3.4	2
0	3073	3.4	2
0	3093	3.45	2
0	3094	3.45	2
0	3095	3.45	2
0	3096	3.45	2
0	3105	3.5	2
0	3106	3.5	2
0	3107	3.5	2
0	3108	3.5	2
0	3109	3.5	2
0	3110	3.5	2
0	3111	3.5	2
0	3112	3.5	2
0	3129	3.55	2
0	3130	3.55	2
0	3131	3.55	2
0	3132	3.55	2
0	3141	3.6	2
0	3142	3.6	2
0	3143	3.6	2
0	3144	3.6	2
0	3145	3.6	2
0	3146	3.6	2
0	3147	3.6	2
0	3148	3.6	2
0	3165	3.65	2
0	3166	3.65	2
0	3167	3.65	2
0	3168	3.65	2
0	3177	3.7	2
0	3178	3.7	2
0	3179	3.7	2
0	3180	3.7	2
0	3181	3.7	2
0	3182	3.7	2
0	3183	3.7	2
0	3184	3.7	2
0	3201	3.75	2
0	3202	3.75	2
0	3203	3.75	2
0	3204	3.75	2
0	3213	3.8	2
0	3214	3.8	2
0	3215	3.8	2
0	3216	3.8	2
0	3217	3.8	2
0	3218	3.8	2
0	3219	3.8	2
0	3220	3.8	2
0	3247	3.85	2
0	3248	3.85	2
0	3249	3.85	2
0	3250	3.85	2
0	3259	3.9	2
0	3260	3.9	2
0	3261	3.9	2
0	3262	3.9	2
0	3263	3.9	2
0	3264	3.9	2
0	3265	3.9	2
0	3266	3.9	2
0	3283	3.95	2
0	3284	3.95	2
0	3285	3.95	2
0	3286	3.95	2
0	3305	4	2
0	3306	4	2
0	3307	4	2
0	3308	4	2
0	3309	4	2
0	3310	4	2
0	3311	4	2
0	3312	4	2
0	3329	4.05	2
0	3330	4.05	2
0	3331	4.05	2
0	3332	4.05	2
0	3341	4.1	2
0	3342	4.1	2
0	3343	4.1	2
0	3344	4.1	2
0	3345	4.1	2
0	3346	4.1	2
0	3347	4.1	2
0	3348	4.1	2
0	3365	4.15	2
0	3366	4.15	2
0	3367	4.15	2
0	3368	4.15	2
0	3377	4.2	2
0	3378	4.2	2
0	3379	4.2	2
0	3380	4.2	2
0	3381	4.2	2
0	3382	4.2	2
0	3383	4.2	2
0	3384	4.2	2
0	3404	4.25	2
0	3405	4.25	2
0	3406	4.25	2
0	3407	4.25	2
0	3416	4.3	2
0	3417	4.3	2
0	3418	4.3	2
0	3419	4.3	2
0	3420	4.3	2
0	3421	4.3	2
0	3422	4.3	2
0	3423	4.3	2
0	3443	4.35	2
0	3444	4.35	2
0	3445	4.35	2
0	3446	4.35	2
0	3468	4.4	2
0	3469	4.4	2
0	3470	4.4	2
0	3471	4.4	2
0	3472	4.4	2
0	3473	4.4	2
0	3474	4.4	2
0	3475	4.4	2
0	3492	4.45	2
0	3493	4.45	2
0	3494	4.45	2
0	3495	4.45	2
0	3507	4.5	2
0	3508	4.5	2
0	3509	4.5	2
0	3510	4.5	2
0	3511	4.5	2
0	3512	4.5	2
0	3513	4.5	2
0	3514	4.5	2
0	3541	4.55	2
0	3542	4.55	2
0	3543	4.55	2
0	3544	4.55	2
0	3553	4.6	2
0	3554	4.6	2
0	3555	4.6	2
0	3556	4.6	2
0	3557	4.6	2
0	3558	4.6	2
0	3559	4.6	2
0	3560	4.6	2
0	3577	4.65	2
0	3578	4.65	2
0	3579	4.65	2
0	3580	4.65	2
0	3589	4.7	2
0	3590	4.7	2
0	3591	4.7	2
0	3592	4.7	2
0	3593	4.7	2
0	3594	4.7	2
0	3595	4.7	2
0	3596	4.7	2
0	3613	4.75	2
0	3614	4.75	2
0	3615	4.75	2
0	3616	4.75	2
0	3625	4.8	2
0	3626	4.8	2
0	3627	4.8	2
0	3628	4.8	2
0	3629	4.8	2
0	3630	4.8	2
0	3631	4.8	2
0	3632	4.8	2
0	3649	4.85	2
0	3650	4.85	2
0	3651	4.85	2
0	3652	4.85	2
0	3667	4.9	2
0	3668	4.9	2
0	3669	4.9	2
0	3670	4.9	2
0	3671	4.9	2
0	3672	4.9	2
0	3673	4.9	2
0	3674	4.9	2
0	3704	4.95	2
0	3705	4.95	2
0	3706	4.95	2
0	3707	4.95	2
0	3795	5	2
0	3796	5	2
0	3797	5	2
0	3798	5	2
0	3799	5	2
0	3800	5	2
0	3801	5	2
0	3802	5	2
0	3846	5.05	2
0	3847	5.05	2
0	3848	5.05	2
0	3849	5.05	2
0	3887	5.1	2
0	3888	5.1	2
0	3889	5.1	2
0	3890	5.1	2
0	3891	5.1	2
0	3892	5.1	2
0	3893	5.1	2
0	3894	5.1	2
0	3951	5.15	2
0	3952	5.15	2
0	3953	5.15	2
0	3954	5.15	2
0	3991	5.2	2
0	3992	5.2	2
0	3993	5.2	2
0	3994	5.2	2
0	3995	5.2	2
0	3996	5.2	2
0	3997	5.2	2
0	3998	5.2	2
0	4036	5.25	2
0	4037	5.25	2
0	4038	5.25	2
0	4039	5.25	2
0	4058	5.3	2
0	4059	5.3	2
0	4060	5.3	2
0	4061	5.3	2
0	4062	5.3	2
0	4063	5.3	2
0	4064	5.3	2
0	4065	5.3	2
0	4088	5.35	2
0	4089	5.35	2
0	4090	5.35	2
0	4091	5.35	2
0	4100	5.4	2
0	4101	5.4	2
0	4102	5.4	2
0	4103	5.4	2
0	4104	5.4	2
0	4105	5.4	2
0	4106	5.4	2
0	4107	5.4	2
0	4124	5.45	2
0	4125	5.45	2
0	4126	5.45	2
0	4127	5.45	2
0	4146	5.5	2
0	4147	5.5	2
0	4148	5.5	2
0	4149	5.5	2
0	4150	5.5	2
0	4151	5.5	2
0	4152	5.5	2
0	4153	5.5	2
0	4180	5.55	2
0	4181	5.55	2
0	4182	5.55	2
0	4183	5.55	2
0	4192	5.6	2
0	4193	5.6	2
0	4194	5.6	2
0	4195	5.6	2
0	4196	5.6	2
0	4197	5.6	2
0	4198	5.6	2
0	4199	5.6	2
0	4229	5.65	2
0	4230	5.65	2
0	4231	5.65	2
0	4232	5.65	2
0	4244	5.7	2
0	4245	5.7	2
0	4246	5.7	2
0	4247	5.7	2
0	4248	5.7	2
0	4249	5.7	2
0	4250	5.7	2
0	4251	5.7	2
0	4268	5.75	2
0	4269	5.75	2
0	4270	5.75	2
0	4271	5.75	2
0	4280	5.8	2
0	4281	5.8	2
0	4282	5.8	2
0	4283	5.8	2
0	4284	5.8	2
0	4285	5.8	2
0	4286	5.8	2
0	4287	5.8	2
0	4304	5.85	2
0	4305	5.85	2
0	4306	5.85	2
0	4307	5.85	2
0	4316	5.9	2
0	4317	5.9	2
0	4318	5.9	2
0	4319	5.9	2
0	4320	5.9	2
0	4321	5.9	2
0	4322	5.9	2
0	4323	5.9	2
0	4350	5.95	2
0	4351	5.95	2
0	4352	5.95	2
0	4353	5.95	2
0	4362	6	2
0	4363	6	2
0	4364	6	2
0	4365	6	2
0	4366	6	2
0	4367	6	2
0	4368	6	2
0	4369	6	2
0	4389	6.05	2
0	4390	6.05	2
0	4391	6.05	2
0	4392	6.05	2
0	4417	6.1	2
0	4418	6.1	2
0	4419	6.1	2
0	4420	6.1	2
0	4421	6.1	2
0	4422	6.1	2
0	4423	6.1	2
0	4424	6.1	2
0	4441	6.15	2
0	4442	6.15	2
0	4443	6.15	2
0	4444	6.15	2
0	4453	6.2	2
0	4454	6.2	2
0	4455	6.2	2
0	4456	6.2	2
0	4457	6.2	2
0	4458	6.2	2
0	4459	6.2	2
0	4460	6.2	2
0	4480	6.25	2
0	4481	6.25	2
0	4482	6.25	2
0	4483	6.25	2
0	4492	6.3	2
0	4493	6.3	2
0	4494	6.3	2
0	4495	6.3	2
0	4496	6.3	2
0	4497	6.3	2
0	4498	6.3	2
0	4499	6.3	2
0	4516	6.35	2
0	4517	6.35	2
0	4518	6.35	2
0	4519	6.35	2
0	4528	6.4	2
0	4529	6.4	2
0	4530	6.4	2
0	4531	6.4	2
0	4532	6.4	2
0	4533	6.4	2
0	4534	6.4	2
0	4535	6.4	2
0	4552	6.45	2
0	4553	6.45	2
0	4554	6.45	2
0	4555	6.45	2
0	4564	6.5	2
0	4565	6.5	2
0	4566	6.5	2
0	4567	6.5	2
0	4568	6.5	2
0	4569	6.5	2
0	4570	6.5	2
0	4571	6.5	2
0	4588	6.55	2
0	4589	6.55	2
0	4590	6.55	2
0	4591	6.55	2
0	4600	6.6	2
0	4601	6.6	2
0	4602	6.6	2
0	4603	6.6	2
0	4604	6.6	2
0	4605	6.6	2
0	4606	6.6	2
0	4607	6.6	2
0	4624	6.65	2
0	4625	6.65	2
0	4626	6.65	2
0	4627	6.65	2
0	4636	6.7	2
0	4637	6.7	2
0	4638	6.7	2
0	4639	6.7	2
0	4640	6.7	2
0	4641	6.7	2
0	4642	6.7	2
0	4643	6.7	2
0	4660	6.75	2
0	4661	6.75	2
0	4662	6.75	2
0	4663	6.75	2
0	4672	6.8	2
0	4673	6.8	2
0	4674	6.8	2
0	4675	6.8	2
0	4676	6.8	2
0	4677	6.8	2
0	4678	6.8	2
0	4679	6.8	2
0	4696	6.85	2
0	4697	6.85	2
0	4698	6.85	2
0	4699	6.85	2
0	4708	6.9	2
0	4709	6.9	2
0	4710	6.9	2
0	4711	6.9	2
0	4712	6.9	2
0	4713	6.9	2
0	4714	6.9	2
0	4715	6.9	2
0	4732	6.95	2
0	4733	6.95	2
0	4734	6.95	2
0	4735	6.95	2
0	4744	7	2
0	4745	7	2
0	4746	7	2
0	4747	7	2
0	4748	7	2
0	4749	7	2
0	4750	7	2
0	4751	7	2
0	4768	7.05	2
0	4769	7.05	2
0	4770	7.05	2
0	4771	7.05	2
0	4780	7.1	2
0	4781	7.1	2
0	4782	7.1	2
0	4783	7.1	2
0	4784	7.1	2
0	4785	7.1	2
0	4786	7.1	2
0	4787	7.1	2
0	4858	7.15	2
0	4859	7.15	2
0	4860	7.15	2
0	4861	7.15	2
0	4880	7.2	2
0	4881	7.2	2
0	4882	7.2	2
0	4883	7.2	2
0	4884	7.2	2
0	4885	7.2	2
0	4886	7.2	2
0	4887	7.2	2
0	4929	7.25	2
0	4930	7.25	2
0	4931	7.25	2
0	4932	7.25	2
0	4978	7.3	2
0	4979	7.3	2
0	4980	7.3	2
0	4981	7.3	2
0	4982	7.3	2
0	4983	7.3	2
0	4984	7.3	2
0	4985	7.3	2
0	5026	7.35	2
0	5027	7.35	2
0	5028	7.35	2
0	5029	7.35	2
0	5048	7.4	2
0	5049	7.4	2
0	5050	7.4	2
0	5051	7.4	2
0	5052	7.4	2
0	5053	7.4	2
0	5054	7.4	2
0	5055	7.4	2
0	5072	7.45	2
0	5073	7.45	2
0	5074	7.45	2
0	5075	7.45	2
0	5084	7.5	2
0	5085	7.5	2
0	5086	7.5	2
0	5087	7.5	2
0	5088	7.5	2
0	5089	7.5	2
0	5090	7.5	2
0	5091	7.5	2
0	5121	7.55	2
0	5122	7.55	2
0	5123	7.55	2
0	5124	7.55	2
0	5133	7.6	2
0	5134	7.6	2
0	5135	7.6	2
0	5136	7.6	2
0	5137	7.6	2
0	5138	7.6	2
0	5139	7.6	2
0	5140	7.6	2
0	5157	7.65	2
0	5158	7.65	2
0	5159	7.65	2
0	5160	7.65	2
0	5185	7.7	2
0	5186	7.7	2
0	5187	7.7	2
0	5188	7.7	2
0	5189	7.7	2
0	5190	7.7	2
0	5191	7.7	2
0	5192	7.7	2
0	5209	7.75	2
0	5210	7.75	2
0	5211	7.75	2
0	5212	7.75	2
0	5234	7.8	2
0	5235	7.8	2
0	5236	7.8	2
0	5237	7.8	2
0	5238	7.8	2
0	5239	7.8	2
0	5240	7.8	2
0	5241	7.8	2
0	5261	7.85	2
0	5262	7.85	2
0	5263	7.85	2
0	5264	7.85	2
0	5273	7.9	2
0	5274	7.9	2
0	5275	7.9	2
0	5276	7.9	2
0	5277	7.9	2
0	5278	7.9	2
0	5279	7.9	2
0	5280	7.9	2
0	5310	7.95	2
0	5311	7.95	2
0	5312	7.95	2
0	5313	7.95	2
0	5322	8	2
0	5323	8	2
0	5324	8	2
0	5325	8	2
0	5326	8	2
0	5327	8	2
0	5328	8	2
0	5329	8	2
0	5346	8.05	2
0	5347	8.05	2
0	5348	8.05	2
0	5349	8.05	2
0	5371	8.1	2
0	5372	8.1	2
0	5373	8.1	2
0	5374	8.1	2
0	5375	8.1	2
0	5376	8.1	2
0	5377	8.1	2
0	5378	8.1	2
0	5395	8.15	2
0	5396	8.15	2
0	5397	8.15	2
0	5398	8.15	2
0	5407	8.2	2
0	5408	8.2	2
0	5409	8.2	2
0	5410	8.2	2
0	5411	8.2	2
0	5412	8.2	2
0	5413	8.2	2
0	5414	8.2	2
0	5444	8.25	2
0	5445	8.25	2
0	5446	8.25	2
0	5447	8.25	2
0	5456	8.3	2
0	5457	8.3	2
0	5458	8.3	2
0	5459	8.3	2
0	5460	8.3	2
0	5461	8.3	2
0	5462	8.3	2
0	5463	8.3	2
0	5493	8.35	2
0	5494	8.35	2
0	5495	8.35	2
0	5496	8.35	2
0	5505	8.4	2
0	5506	8.4	2
0	5507	8.4	2
0	5508	8.4	2
0	5509	8.4	2
0	5510	8.4	2
0	5511	8.4	2
0	5512	8.4	2
0	5529	8.45	2
0	5530	8.45	2
0	5531	8.45	2
0	5532	8.45	2
0	5544	8.5	2
0	5545	8.5	2
0	5546	8.5	2
0	5547	8.5	2
0	5548	8.5	2
0	5549	8.5	2
0	5550	8.5	2
0	5551	8.5	2
0	5568	8.55	2
0	5569	8.55	2
0	5570	8.55	2
0	5571	8.55	2
0	5580	8.6	2
0	5581	8.6	2
0	5582	8.6	2
0	5583	8.6	2
0	5584	8.6	2
0	5585	8.6	2
0	5586	8.6	2
0	5587	8.6	2
0	5614	8.65	2
0	5615	8.65	2
0	5616	8.65	2
0	5617	8.65	2
0	5626	8.7	2
0	5627	8.7	2
0	5628	8.7	2
0	5629	8.7	2
0	5630	8.7	2
0	5631	8.7	2
0	5632	8.7	2
0	5633	8.7	2
0	5650	8.75	2
0	5651	8.75	2
0	5652	8.75	2
0	5653	8.75	2
0	5672	8.8	2
0	5673	8.8	2
0	5674	8.8	2
0	5675	8.8	2
0	5676	8.8	2
0	5677	8.8	2
0	5678	8.8	2
0	5679	8.8	2
0	5696	8.85	2
0	5697	8.85	2
0	5698	8.85	2
0	5699	8.85	2
0	5721	8.9	2
0	5722	8.9	2
0	5723	8.9	2
0	5724	8.9	2
0	5725	8.9	2
0	5726	8.9	2
0	5727	8.9	2
0	5728	8.9	2
0	5745	8.95	2
0	5746	8.95	2
0	5747	8.95	2
0	5748	8.95	2
0	5757	9	2
0	5758	9	2
0	5759	9	2
0	5760	9	2
0	5761	9	2
0	5762	9	2
0	5763	9	2
0	5764	9	2
0	5791	9.05	2
0	5792	9.05	2
0	5793	9.05	2
0	5794	9.05	2
0	5803	9.1	2
0	5804	9.1	2
0	5805	9.1	2
0	5806	9.1	2
0	5807	9.1	2
0	5808	9.1	2
0	5809	9.1	2
0	5810	9.1	2
0	5827	9.15	2
0	5828	9.15	2
0	5829	9.15	2
0	5830	9.15	2
0	5842	9.2	2
0	5843	9.2	2
0	5844	9.2	2
0	5845	9.2	2
0	5846	9.2	2
0	5847	9.2	2
0	5848	9.2	2
0	5849	9.2	2
0	5876	9.25	2
0	5877	9.25	2
0	5878	9.25	2
0	5879	9.25	2
0	5888	9.3	2
0	5889	9.3	2
0	5890	9.3	2
0	5891	9.3	2
0	5892	9.3	2
0	5893	9.3	2
0	5894	9.3	2
0	5895	9.3	2
0	5912	9.35	2
0	5913	9.35	2
0	5914	9.35	2
0	5915	9.35	2
0	5937	9.4	2
0	5938	9.4	2
0	5939	9.4	2
0	5940	9.4	2
0	5941	9.4	2
0	5942	9.4	2
0	5943	9.4	2
0	5944	9.4	2
0	5971	9.45	2
0	5972	9.45	2
0	5973	9.45	2
0	5974	9.45	2
0	5983	9.5	2
0	5984	9.5	2
0	5985	9.5	2
0	5986	9.5	2
0	5987	9.5	2
0	5988	9.5	2
0	5989	9.5	2
0	5990	9.5	2
0	6007	9.55	2
0	6008	9.55	2
0	6009	9.55	2
0	6010	9.55	2
0	6029	9.6	2
0	6030	9.6	2
0	6031	9.6	2
0	6032	9.6	2
0	6033	9.6	2
0	6034	9.6	2
0	6035	9.6	2
0	6036	9.6	2
0	6053	9.65	2
0	6054	9.65	2
0	6055	9.65	2
0	6056	9.65	2
0	6065	9.7	2
0	6066	9.7	2
0	6067	9.7	2
0	6068	9.7	2
0	6069	9.7	2
0	6070	9.7	2
0	6071	9.7	2
0	6072	9.7	2
0	6089	9.75	2
0	6090	9.75	2
0	6091	9.75	2
0	6092	9.75	2
0	6104	9.8	2
0	6105	9.8	2
0	6106	9.8	2
0	6107	9.8	2
0	6108	9.8	2
0	6109	9.8	2
0	6110	9.8	2
0	6111	9.8	2
0	6128	9.85	2
0	6129	9.85	2
0	6130	9.85	2
0	6131	9.85	2
0	6140	9.9	2
0	6141	9.9	2
0	6142	9.9	2
0	6143	9.9	2
0	6144	9.9	2
0	6145	9.9	2
0	6146	9.9	2
0	6147	9.9	2
0	6177	9.95	2
0	6178	9.95	2
0	6179	9.95	2
0	6180	9.95	2
0	6192	10	2
0	6193	10	2
0	6194	10	2
0	6195	10	2
0	6196	10	2
0	6197	10	2
0	6198	10	2
0	6199	10	2
0	6216	10.05	2
0	6217	10.05	2
0	6218	10.05	2
0	6219	10.05	2
0	6231	10.1	2
0	6232	10.1	2
0	6233	10.1	2
0	6234	10.1	2
0	6235	10.1	2
0	6236	10.1	2
0	6237	10.1	2
0	6238	10.1	2
0	6255	10.15	2
0	6256	10.15	2
0	6257	10.15	2
0	6258	10.15	2
0	6267	10.2	2
0	6268	10.2	2
0	6269	10.2	2
0	6270	10.2	2
0	6271	10.2	2
0	6272	10.2	2
0	6273	10.2	2
0	6274	10.2	2
0	6291	10.25	2
0	6292	10.25	2
0	6293	10.25	2
0	6294	10.25	2
0	6303	10.3	2
0	6304	10.3	2
0	6305	10.3	2
0	6306	10.3	2
0	6307	10.3	2
0	6308	10.3	2
0	6309	10.3	2
0	6310	10.3	2
0	6327	10.35	2
0	6328	10.35	2
0	6329	10.35	2
0	6330	10.35	2
0	6342	10.4	2
0	6343	10.4	2
0	6344	10.4	2
0	6345	10.4	2
0	6346	10.4	2
0	6347	10.4	2
0	6348	10.4	2
0	6349	10.4	2
0	6366	10.45	2
0	6367	10.45	2
0	6368	10.45	2
0	6369	10.45	2
0	6378	10.5	2
0	6379	10.5	2
0	6380	10.5	2
0	6381	10.5	2
0	6382	10.5	2
0	6383	10.5	2
0	6384	10.5	2
0	6385	10.5	2
0	6402	10.55	2
0	6403	10.55	2
0	6404	10.55	2
0	6405	10.55	2
0	6414	10.6	2
0	6415	10.6	2
0	6416	10.6	2
0	6417	10.6	2
0	6418	10.6	2
0	6419	10.6	2
0	6420	10.6	2
0	6421	10.6	2
0	6438	10.65	2
0	6439	10.65	2
0	6440	10.65	2
0	6441	10.65	2
0	6450	10.7	2
0	6451	10.7	2
0	6452	10.7	2
0	6453	10.7	2
0	6454	10.7	2
0	6455	10.7	2
0	6456	10.7	2
0	6457	10.7	2
0	6474	10.75	2
0	6475	10.75	2
0	6476	10.75	2
0	6477	10.75	2
0	6499	10.8	2
0	6500	10.8	2
0	6501	10.8	2
0	6502	10.8	2
0	6503	10.8	2
0	6504	10.8	2
0	6505	10.8	2
0	6506	10.8	2
0	6523	10.85	2
0	6524	10.85	2
0	6525	10.85	2
0	6526	10.85	2
0	6535	10.9	2
0	6536	10.9	2
0	6537	10.9	2
0	6538	10.9	2
0	6539	10.9	2
0	6540	10.9	2
0	6541	10.9	2
0	6542	10.9	2
0	6572	10.95	2
0	6573	10.95	2
0	6574	10.95	2
0	6575	10.95	2
0	6597	11	2
0	6598	11	2
0	6599	11	2
0	6600	11	2
0	6601	11	2
0	6602	11	2
0	6603	11	2
0	6604	11	2
0	6621	11.05	2
0	6622	11.05	2
0	6623	11.05	2
0	6624	11.05	2
0	6633	11.1	2
0	6634	11.1	2
0	6635	11.1	2
0	6636	11.1	2
0	6637	11.1	2
0	6638	11.1	2
0	6639	11.1	2
0	6640	11.1	2
0	6890	11.15	2
0	6891	11.15	2
0	6892	11.15	2
0	6893	11.15	2
0	6923	11.2	2
0	6924	11.2	2
0	6925	11.2	2
0	6926	11.2	2
0	6927	11.2	2
0	6928	11.2	2
0	6929	11.2	2
0	6930	11.2	2
0	6972	11.25	2
0	6973	11.25	2
0	6974	11.25	2
0	6975	11.25	2
0	7021	11.3	2
0	7022	11.3	2
0	7023	11.3	2
0	7024	11.3	2
0	7025	11.3	2
0	7026	11.3	2
0	7027	11.3	2
0	7028	11.3	2
0	7078	11.35	2
0	7079	11.35	2
0	7080	11.35	2
0	7081	11.35	2
0	7117	11.4	2
0	7118	11.4	2
0	7119	11.4	2
0	7120	11.4	2
0	7121	11.4	2
0	7122	11.4	2
0	7123	11.4	2
0	7124	11.4	2
0	7151	11.45	2
0	7152	11.45	2
0	7153	11.45	2
0	7154	11.45	2
0	7175	11.5	2
0	7176	11.5	2
0	7177	11.5	2
0	7178	11.5	2
0	7179	11.5	2
0	7180	11.5	2
0	7181	11.5	2
0	7182	11.5	2
0	7242	11.55	2
0	7243	11.55	2
0	7244	11.55	2
0	7245	11.55	2
0	7291	11.6	2
0	7292	11.6	2
0	7293	11.6	2
0	7294	11.6	2
0	7295	11.6	2
0	7296	11.6	2
0	7297	11.6	2
0	7298	11.6	2
0	7325	11.65	2
0	7326	11.65	2
0	7327	11.65	2
0	7328	11.65	2
0	7378	11.7	2
0	7379	11.7	2
0	7380	11.7	2
0	7381	11.7	2
0	7382	11.7	2
0	7383	11.7	2
0	7384	11.7	2
0	7385	11.7	2
0	7433	11.75	2
0	7434	11.75	2
0	7435	11.75	2
0	7436	11.75	2
0	7470	11.8	2
0	7471	11.8	2
0	7472	11.8	2
0	7473	11.8	2
0	7474	11.8	2
0	7475	11.8	2
0	7476	11.8	2
0	7477	11.8	2
0	7524	11.85	2
0	7525	11.85	2
0	7526	11.85	2
0	7527	11.85	2
0	7561	11.9	2
0	7562	11.9	2
0	7563	11.9	2
0	7564	11.9	2
0	7565	11.9	2
0	7566	11.9	2
0	7567	11.9	2
0	7568	11.9	2
0	7607	11.95	2
0	7608	11.95	2
0	7609	11.95	2
0	7610	11.95	2
0	7631	12	2
0	7632	12	2
0	7633	12	2
0	7634	12	2
0	7635	12	2
0	7636	12	2
0	7637	12	2
0	7638	12	2
0	7677	12.05	2
0	7678	12.05	2
0	7679	12.05	2
0	7680	12.05	2
0	7730	12.1	2
0	7731	12.1	2
0	7732	12.1	2
0	7733	12.1	2
0	7734	12.1	2
0	7735	12.1	2
0	7736	12.1	2
0	7737	12.1	2
0	7770	12.15	2
0	7771	12.15	2
0	7772	12.15	2
0	7773	12.15	2
0	7810	12.2	2
0	7811	12.2	2
0	7812	12.2	2
0	7813	12.2	2
0	7814	12.2	2
0	7815	12.2	2
0	7816	12.2	2
0	7817	12.2	2
0	7865	12.25	2
0	7866	12.25	2
0	7867	12.25	2
0	7868	12.25	2
0	7893	12.3	2
0	7894	12.3	2
0	7895	12.3	2
0	7896	12.3	2
0	7897	12.3	2
0	7898	12.3	2
0	7899	12.3	2
0	7900	12.3	2
0	7939	12.35	2
0	7940	12.35	2
0	7941	12.35	2
0	7942	12.35	2
0	7969	12.4	2
0	7970	12.4	2
0	7971	12.4	2
0	7972	12.4	2
0	7973	12.4	2
0	7974	12.4	2
0	7975	12.4	2
0	7976	12.4	2
0	8006	12.45	2
0	8007	12.45	2
0	8008	12.45	2
0	8009	12.45	2
0	8036	12.5	2
0	8037	12.5	2
0	8038	12.5	2
0	8039	12.5	2
0	8040	12.5	2
0	8041	12.5	2
0	8042	12.5	2
0	8043	12.5	2
0	8088	12.55	2
0	8089	12.55	2
0	8090	12.55	2
0	8091	12.55	2
0	8100	12.6	2
0	8101	12.6	2
0	8102	12.6	2
0	8103	12.6	2
0	8104	12.6	2
0	8105	12.6	2
0	8106	12.6	2
0	8107	12.6	2
0	8137	12.65	2
0	8138	12.65	2
0	8139	12.65	2
0	8140	12.65	2
0	8152	12.7	2
0	8153	12.7	2
0	8154	12.7	2
0	8155	12.7	2
0	8156	12.7	2
0	8157	12.7	2
0	8158	12.7	2
0	8159	12.7	2
0	8186	12.75	2
0	8187	12.75	2
0	8188	12.75	2
0	8189	12.75	2
0	8211	12.8	2
0	8212	12.8	2
0	8213	12.8	2
0	8214	12.8	2
0	8215	12.8	2
0	8216	12.8	2
0	8217	12.8	2
0	8218	12.8	2
0	8235	12.85	2
0	8236	12.85	2
0	8237	12.85	2
0	8238	12.85	2
0	8260	12.9	2
0	8261	12.9	2
0	8262	12.9	2
0	8263	12.9	2
0	8264	12.9	2
0	8265	12.9	2
0	8266	12.9	2
0	8267	12.9	2
0	8284	12.95	2
0	8285	12.95	2
0	8286	12.95	2
0	8287	12.95	2
0	8296	13	2
0	8297	13	2
0	8298	13	2
0	8299	13	2
0	8300	13	2
0	8301	13	2
0	8302	13	2
0	8303	13	2
0	8320	13.05	2
0	8321	13.05	2
0	8322	13.05	2
0	8323	13.05	2
0	8342	13.1	2
0	8343	13.1	2
0	8344	13.1	2
0	8345	13.1	2
0	8346	13.1	2
0	8347	13.1	2
0	8348	13.1	2
0	8349	13.1	2
0	8366	13.15	2
0	8367	13.15	2
0	8368	13.15	2
0	8369	13.15	2
0	8391	13.2	2
0	8392	13.2	2
0	8393	13.2	2
0	8394	13.2	2
0	8395	13.2	2
0	8396	13.2	2
0	8397	13.2	2
0	8398	13.2	2
0	8418	13.25	2
0	8419	13.25	2
0	8420	13.25	2
0	8421	13.25	2
0	8568	13.3	2
0	8569	13.3	2
0	8570	13.3	2
0	8571	13.3	2
0	8572	13.3	2
0	8573	13.3	2
0	8574	13.3	2
0	8575	13.3	2
0	8608	13.35	2
0	8609	13.35	2
0	8610	13.35	2
0	8611	13.35	2
0	8641	13.4	2
0	8642	13.4	2
0	8643	13.4	2
0	8644	13.4	2
0	8645	13.4	2
0	8646	13.4	2
0	8647	13.4	2
0	8648	13.4	2
0	8705	13.45	2
0	8706	13.45	2
0	8707	13.45	2
0	8708	13.45	2
0	8748	13.5	2
0	8749	13.5	2
0	8750	13.5	2
0	8751	13.5	2
0	8752	13.5	2
0	8753	13.5	2
0	8754	13.5	2
0	8755	13.5	2
0	8784	13.55	2
0	8785	13.55	2
0	8786	13.55	2
0	8787	13.55	2
0	8809	13.6	2
0	8810	13.6	2
0	8811	13.6	2
0	8812	13.6	2
0	8813	13.6	2
0	8814	13.6	2
0	8815	13.6	2
0	8816	13.6	2
0	8851	13.65	2
0	8852	13.65	2
0	8853	13.65	2
0	8854	13.65	2
0	8882	13.7	2
0	8883	13.7	2
0	8884	13.7	2
0	8885	13.7	2
0	8886	13.7	2
0	8887	13.7	2
0	8888	13.7	2
0	8889	13.7	2
0	8928	13.75	2
0	8929	13.75	2
0	8930	13.75	2
0	8931	13.75	2
0	8959	13.8	2
0	8960	13.8	2
0	8961	13.8	2
0	8962	13.8	2
0	8963	13.8	2
0	8964	13.8	2
0	8965	13.8	2
0	8966	13.8	2
0	9016	13.85	2
0	9017	13.85	2
0	9018	13.85	2
0	9019	13.85	2
0	9052	13.9	2
0	9053	13.9	2
0	9054	13.9	2
0	9055	13.9	2
0	9056	13.9	2
0	9057	13.9	2
0	9058	13.9	2
0	9059	13.9	2
0	9107	13.95	2
0	9108	13.95	2
0	9109	13.95	2
0	9110	13.95	2
0	9138	14	2
0	9139	14	2
0	9140	14	2
0	9141	14	2
0	9142	14	2
0	9143	14	2
0	9144	14	2
0	9145	14	2
0	9183	14.05	2
0	9184	14.05	2
0	9185	14.05	2
0	9186	14.05	2
0	9201	14.1	2
0	9202	14.1	2
0	9203	14.1	2
0	9204	14.1	2
0	9205	14.1	2
0	9206	14.1	2
0	9207	14.1	2
0	9208	14.1	2
0	9225	14.15	2
0	9226	14.15	2
0	9227	14.15	2
0	9228	14.15	2
0	9237	14.2	2
0	9238	14.2	2
0	9239	14.2	2
0	9240	14.2	2
0	9241	14.2	2
0	9242	14.2	2
0	9243	14.2	2
0	9244	14.2	2
0	9261	14.25	2
0	9262	14.25	2
0	9263	14.25	2
0	9264	14.25	2
0	9273	14.3	2
0	9274	14.3	2
0	9275	14.3	2
0	9276	14.3	2
0	9277	14.3	2
0	9278	14.3	2
0	9279	14.3	2
0	9280	14.3	2
0	9297	14.35	2
0	9298	14.35	2
0	9299	14.35	2
0	9300	14.35	2
0	9309	14.4	2
0	9310	14.4	2
0	9311	14.4	2
0	9312	14.4	2
0	9313	14.4	2
0	9314	14.4	2
0	9315	14.4	2
0	9316	14.4	2
0	9333	14.45	2
0	9334	14.45	2
0	9335	14.45	2
0	9336	14.45	2
0	9345	14.5	2
0	9346	14.5	2
0	9347	14.5	2
0	9348	14.5	2
0	9349	14.5	2
0	9350	14.5	2
0	9351	14.5	2
0	9352	14.5	2
0	9369	14.55	2
0	9370	14.55	2
0	9371	14.55	2
0	9372	14.55	2
0	9381	14.6	2
0	9382	14.6	2
0	9383	14.6	2
0	9384	14.6	2
0	9385	14.6	2
0	9386	14.6	2
0	9387	14.6	2
0	9388	14.6	2
0	9405	14.65	2
0	9406	14.65	2
0	9407	14.65	2
0	9408	14.65	2
0	9427	14.7	2
0	9428	14.7	2
0	9429	14.7	2
0	9430	14.7	2
0	9431	14.7	2
0	9432	14.7	2
0	9433	14.7	2
0	9434	14.7	2
0	9451	14.75	2
0	9452	14.75	2
0	9453	14.75	2
0	9454	14.75	2
0	9476	14.8	2
0	9477	14.8	2
0	9478	14.8	2
0	9479	14.8	2
0	9480	14.8	2
0	9481	14.8	2
0	9482	14.8	2
0	9483	14.8	2
0	9510	14.85	2
0	9511	14.85	2
0	9512	14.85	2
0	9513	14.85	2
0	9522	14.9	2
0	9523	14.9	2
0	9524	14.9	2
0	9525	14.9	2
0	9526	14.9	2
0	9527	14.9	2
0	9528	14.9	2
0	9529	14.9	2
0	9725	14.95	2
0	9726	14.95	2
0	9727	14.95	2
0	9728	14.95	2
0	9759	15	2
0	9760	15	2
0	9761	15	2
0	9762	15	2
0	9763	15	2
0	9764	15	2
0	9765	15	2
0	9766	15	2
0	9806	15.05	2
0	9807	15.05	2
0	9808	15.05	2
0	9809	15.05	2
0	9828	15.1	2
0	9829	15.1	2
0	9830	15.1	2
0	9831	15.1	2
0	9832	15.1	2
0	9833	15.1	2
0	9834	15.1	2
0	9835	15.1	2
0	9871	15.15	2
0	9872	15.15	2
0	9873	15.15	2
0	9874	15.15	2
0	9910	15.2	2
0	9911	15.2	2
0	9912	15.2	2
0	9913	15.2	2
0	9914	15.2	2
0	9915	15.2	2
0	9916	15.2	2
0	9917	15.2	2
0	9984	15.25	2
0	9985	15.25	2
0	9986	15.25	2
0	9987	15.25	2
0	10011	15.3	2
0	10012	15.3	2
0	10013	15.3	2
0	10014	15.3	2
0	10015	15.3	2
0	10016	15.3	2
0	10017	15.3	2
0	10018	15.3	2
0	10079	15.35	2
0	10080	15.35	2
0	10081	15.35	2
0	10082	15.35	2
0	10132	15.4	2
0	10133	15.4	2
0	10134	15.4	2
0	10135	15.4	2
0	10136	15.4	2
0	10137	15.4	2
0	10138	15.4	2
0	10139	15.4	2
0	10189	15.45	2
0	10190	15.45	2
0	10191	15.45	2
0	10192	15.45	2
0	10241	15.5	2
0	10242	15.5	2
0	10243	15.5	2
0	10244	15.5	2
0	10245	15.5	2
0	10246	15.5	2
0	10247	15.5	2
0	10248	15.5	2
0	10268	15.55	2
0	10269	15.55	2
0	10270	15.55	2
0	10271	15.55	2
0	10302	15.6	2
0	10303	15.6	2
0	10304	15.6	2
0	10305	15.6	2
0	10306	15.6	2
0	10307	15.6	2
0	10308	15.6	2
0	10309	15.6	2
0	10357	15.65	2
0	10358	15.65	2
0	10359	15.65	2
0	10360	15.65	2
0	10390	15.7	2
0	10391	15.7	2
0	10392	15.7	2
0	10393	15.7	2
0	10394	15.7	2
0	10395	15.7	2
0	10396	15.7	2
0	10397	15.7	2
0	10433	15.75	2
0	10434	15.75	2
0	10435	15.75	2
0	10436	15.75	2
0	10473	15.8	2
0	10474	15.8	2
0	10475	15.8	2
0	10476	15.8	2
0	10477	15.8	2
0	10478	15.8	2
0	10479	15.8	2
0	10480	15.8	2
0	10525	15.85	2
0	10526	15.85	2
0	10527	15.85	2
0	10528	15.85	2
0	10559	15.9	2
0	10560	15.9	2
0	10561	15.9	2
0	10562	15.9	2
0	10563	15.9	2
0	10564	15.9	2
0	10565	15.9	2
0	10566	15.9	2
0	10610	15.95	2
0	10611	15.95	2
0	10612	15.95	2
0	10613	15.95	2
0	10650	16	2
0	10651	16	2
0	10652	16	2
0	10653	16	2
0	10654	16	2
0	10655	16	2
0	10656	16	2
0	10657	16	2
0	10692	16.05	2
0	10693	16.05	2
0	10694	16.05	2
0	10695	16.05	2
0	10715	16.1	2
0	10716	16.1	2
0	10717	16.1	2
0	10718	16.1	2
0	10719	16.1	2
0	10720	16.1	2
0	10721	16.1	2
0	10722	16.1	2
0	10739	16.15	2
0	10740	16.15	2
0	10741	16.15	2
0	10742	16.15	2
0	10751	16.2	2
0	10752	16.2	2
0	10753	16.2	2
0	10754	16.2	2
0	10755	16.2	2
0	10756	16.2	2
0	10757	16.2	2
0	10758	16.2	2
0	10785	16.25	2
0	10786	16.25	2
0	10787	16.25	2
0	10788	16.25	2
0	10797	16.3	2
0	10798	16.3	2
0	10799	16.3	2
0	10800	16.3	2
0	10801	16.3	2
0	10802	16.3	2
0	10803	16.3	2
0	10804	16.3	2
0	10821	16.35	2
0	10822	16.35	2
0	10823	16.35	2
0	10824	16.35	2
0	10843	16.4	2
0	10844	16.4	2
0	10845	16.4	2
0	10846	16.4	2
0	10847	16.4	2
0	10848	16.4	2
0	10849	16.4	2
0	10850	16.4	2
0	10867	16.45	2
0	10868	16.45	2
0	10869	16.45	2
0	10870	16.45	2
0	10879	16.5	2
0	10880	16.5	2
0	10881	16.5	2
0	10882	16.5	2
0	10883	16.5	2
0	10884	16.5	2
0	10885	16.5	2
0	10886	16.5	2
0	10903	16.55	2
0	10904	16.55	2
0	10905	16.55	2
0	10906	16.55	2
0	10928	16.6	2
0	10929	16.6	2
0	10930	16.6	2
0	10931	16.6	2
0	10932	16.6	2
0	10933	16.6	2
0	10934	16.6	2
0	10935	16.6	2
0	10952	16.65	2
0	10953	16.65	2
0	10954	16.65	2
0	10955	16.65	2
0	10964	16.7	2
0	10965	16.7	2
0	10966	16.7	2
0	10967	16.7	2
0	10968	16.7	2
0	10969	16.7	2
0	10970	16.7	2
0	10971	16.7	2
0	11071	16.75	2
0	11072	16.75	2
0	11073	16.75	2
0	11074	16.75	2
0	11101	16.8	2
0	11102	16.8	2
0	11103	16.8	2
0	11104	16.8	2
0	11105	16.8	2
0	11106	16.8	2
0	11107	16.8	2
0	11108	16.8	2
0	11147	16.85	2
0	11148	16.85	2
0	11149	16.85	2
0	11150	16.85	2
0	11190	16.9	2
0	11191	16.9	2
0	11192	16.9	2
0	11193	16.9	2
0	11194	16.9	2
0	11195	16.9	2
0	11196	16.9	2
0	11197	16.9	2
0	11236	16.95	2
0	11237	16.95	2
0	11238	16.95	2
0	11239	16.95	2
0	11275	17	2
0	11276	17	2
0	11277	17	2
0	11278	17	2
0	11279	17	2
0	11280	17	2
0	11281	17	2
0	11282	17	2
0	11321	17.05	2
0	11322	17.05	2
0	11323	17.05	2
0	11324	17.05	2
0	11370	17.1	2
0	11371	17.1	2
0	11372	17.1	2
0	11373	17.1	2
0	11374	17.1	2
0	11375	17.1	2
0	11376	17.1	2
0	11377	17.1	2
0	11413	17.15	2
0	11414	17.15	2
0	11415	17.15	2
0	11416	17.15	2
0	11425	17.2	2
0	11426	17.2	2
0	11427	17.2	2
0	11428	17.2	2
0	11429	17.2	2
0	11430	17.2	2
0	11431	17.2	2
0	11432	17.2	2
0	11452	17.25	2
0	11453	17.25	2
0	11454	17.25	2
0	11455	17.25	2
0	11464	17.3	2
0	11465	17.3	2
0	11466	17.3	2
0	11467	17.3	2
0	11468	17.3	2
0	11469	17.3	2
0	11470	17.3	2
0	11471	17.3	2
0	11488	17.35	2
0	11489	17.35	2
0	11490	17.35	2
0	11491	17.35	2
0	11503	17.4	2
0	11504	17.4	2
0	11505	17.4	2
0	11506	17.4	2
0	11507	17.4	2
0	11508	17.4	2
0	11509	17.4	2
0	11510	17.4	2
0	11527	17.45	2
0	11528	17.45	2
0	11529	17.45	2
0	11530	17.45	2
0	11539	17.5	2
0	11540	17.5	2
0	11541	17.5	2
0	11542	17.5	2
0	11543	17.5	2
0	11544	17.5	2
0	11545	17.5	2
0	11546	17.5	2
0	11576	17.55	2
0	11577	17.55	2
0	11578	17.55	2
0	11579	17.55	2
0	11588	17.6	2
0	11589	17.6	2
0	11590	17.6	2
0	11591	17.6	2
0	11592	17.6	2
0	11593	17.6	2
0	11594	17.6	2
0	11595	17.6	2
0	11612	17.65	2
0	11613	17.65	2
0	11614	17.65	2
0	11615	17.65	2
0	11624	17.7	2
0	11625	17.7	2
0	11626	17.7	2
0	11627	17.7	2
0	11628	17.7	2
0	11629	17.7	2
0	11630	17.7	2
0	11631	17.7	2
0	11648	17.75	2
0	11649	17.75	2
0	11650	17.75	2
0	11651	17.75	2
0	11660	17.8	2
0	11661	17.8	2
0	11662	17.8	2
0	11663	17.8	2
0	11664	17.8	2
0	11665	17.8	2
0	11666	17.8	2
0	11667	17.8	2
0	11684	17.85	2
0	11685	17.85	2
0	11686	17.85	2
0	11687	17.85	2
0	11696	17.9	2
0	11697	17.9	2
0	11698	17.9	2
0	11699	17.9	2
0	11700	17.9	2
0	11701	17.9	2
0	11702	17.9	2
0	11703	17.9	2
0	11723	17.95	2
0	11724	17.95	2
0	11725	17.95	2
0	11726	17.95	2
0	11738	18	2
0	11739	18	2
0	11740	18	2
0	11741	18	2
0	11742	18	2
0	11743	18	2
0	11744	18	2
0	11745	18	2
0	11762	18.05	2
0	11763	18.05	2
0	11764	18.05	2
0	11765	18.05	2
0	11774	18.1	2
0	11775	18.1	2
0	11776	18.1	2
0	11777	18.1	2
0	11778	18.1	2
0	11779	18.1	2
0	11780	18.1	2
0	11781	18.1	2
0	11798	18.15	2
0	11799	18.15	2
0	11800	18.15	2
0	11801	18.15	2
0	11810	18.2	2
0	11811	18.2	2
0	11812	18.2	2
0	11813	18.2	2
0	11814	18.2	2
0	11815	18.2	2
0	11816	18.2	2
0	11817	18.2	2
0	11834	18.25	2
0	11835	18.25	2
0	11836	18.25	2
0	11837	18.25	2
0	11846	18.3	2
0	11847	18.3	2
0	11848	18.3	2
0	11849	18.3	2
0	11850	18.3	2
0	11851	18.3	2
0	11852	18.3	2
0	11853	18.3	2
0	11873	18.35	2
0	11874	18.35	2
0	11875	18.35	2
0	11876	18.35	2
0	11898	18.4	2
0	11899	18.4	2
0	11900	18.4	2
0	11901	18.4	2
0	11902	18.4	2
0	11903	18.4	2
0	11904	18.4	2
0	11905	18.4	2
0	11922	18.45	2
0	11923	18.45	2
0	11924	18.45	2
0	11925	18.45	2
0	11934	18.5	2
0	11935	18.5	2
0	11936	18.5	2
0	11937	18.5	2
0	11938	18.5	2
0	11939	18.5	2
0	11940	18.5	2
0	11941	18.5	2
0	12104	18.55	2
0	12105	18.55	2
0	12106	18.55	2
0	12107	18.55	2
0	12120	18.6	2
0	12121	18.6	2
0	12122	18.6	2
0	12123	18.6	2
0	12124	18.6	2
0	12125	18.6	2
0	12126	18.6	2
0	12127	18.6	2
0	12174	18.65	2
0	12175	18.65	2
0	12176	18.65	2
0	12177	18.65	2
0	12199	18.7	2
0	12200	18.7	2
0	12201	18.7	2
0	12202	18.7	2
0	12203	18.7	2
0	12204	18.7	2
0	12205	18.7	2
0	12206	18.7	2
0	12244	18.75	2
0	12245	18.75	2
0	12246	18.75	2
0	12247	18.75	2
0	12283	18.8	2
0	12284	18.8	2
0	12285	18.8	2
0	12286	18.8	2
0	12287	18.8	2
0	12288	18.8	2
0	12289	18.8	2
0	12290	18.8	2
0	12348	18.85	2
0	12349	18.85	2
0	12350	18.85	2
0	12351	18.85	2
0	12387	18.9	2
0	12388	18.9	2
0	12389	18.9	2
0	12390	18.9	2
0	12391	18.9	2
0	12392	18.9	2
0	12393	18.9	2
0	12394	18.9	2
0	12448	18.95	2
0	12449	18.95	2
0	12450	18.95	2
0	12451	18.95	2
0	12475	19	2
0	12476	19	2
0	12477	19	2
0	12478	19	2
0	12479	19	2
0	12480	19	2
0	12481	19	2
0	12482	19	2
0	12515	19.05	2
0	12516	19.05	2
0	12517	19.05	2
0	12518	19.05	2
0	12554	19.1	2
0	12555	19.1	2
0	12556	19.1	2
0	12557	19.1	2
0	12558	19.1	2
0	12559	19.1	2
0	12560	19.1	2
0	12561	19.1	2
0	12609	19.15	2
0	12610	19.15	2
0	12611	19.15	2
0	12612	19.15	2
0	12655	19.2	2
0	12656	19.2	2
0	12657	19.2	2
0	12658	19.2	2
0	12659	19.2	2
0	12660	19.2	2
0	12661	19.2	2
0	12662	19.2	2
0	12712	19.25	2
0	12713	19.25	2
0	12714	19.25	2
0	12715	19.25	2
0	12768	19.3	2
0	12769	19.3	2
0	12770	19.3	2
0	12771	19.3	2
0	12772	19.3	2
0	12773	19.3	2
0	12774	19.3	2
0	12775	19.3	2
0	12811	19.35	2
0	12812	19.35	2
0	12813	19.35	2
0	12814	19.35	2
0	12915	19.4	2
0	12916	19.4	2
0	12917	19.4	2
0	12918	19.4	2
0	12919	19.4	2
0	12920	19.4	2
0	12921	19.4	2
0	12922	19.4	2
0	12958	19.45	2
0	12959	19.45	2
0	12960	19.45	2
0	12961	19.45	2
0	12997	19.5	2
0	12998	19.5	2
0	12999	19.5	2
0	13000	19.5	2
0	13001	19.5	2
0	13002	19.5	2
0	13003	19.5	2
0	13004	19.5	2
0	13046	19.55	2
0	13047	19.55	2
0	13048	19.55	2
0	13049	19.55	2
0	13077	19.6	2
0	13078	19.6	2
0	13079	19.6	2
0	13080	19.6	2
0	13081	19.6	2
0	13082	19.6	2
0	13083	19.6	2
0	13084	19.6	2
0	13128	19.65	2
0	13129	19.65	2
0	13130	19.65	2
0	13131	19.65	2
0	13178	19.7	2
0	13179	19.7	2
0	13180	19.7	2
0	13181	19.7	2
0	13182	19.7	2
0	13183	19.7	2
0	13184	19.7	2
0	13185	19.7	2
0	13220	19.75	2
0	13221	19.75	2
0	13222	19.75	2
0	13223	19.75	2
0	13254	19.8	2
0	13255	19.8	2
0	13256	19.8	2
0	13257	19.8	2
0	13258	19.8	2
0	13259	19.8	2
0	13260	19.8	2
0	13261	19.8	2
0	13309	19.85	2
0	13310	19.85	2
0	13311	19.85	2
0	13312	19.85	2
0	13342	19.9	2
0	13343	19.9	2
0	13344	19.9	2
0	13345	19.9	2
0	13346	19.9	2
0	13347	19.9	2
0	13348	19.9	2
0	13349	19.9	2
0	13376	19.95	2
0	13377	19.95	2
0	13378	19.95	2
0	13379	19.95	2
0	13388	20	2
0	13389	20	2
0	13390	20	2
0	13391	20	2
0	13392	20	2
0	13393	20	2
0	13394	20	2
0	13395	20	2
0	13412	20.05	2
0	13413	20.05	2
0	13414	20.05	2
0	13415	20.05	2
0	13427	20.1	2
0	13428	20.1	2
0	13429	20.1	2
0	13430	20.1	2
0	13431	20.1	2
0	13432	20.1	2
0	13433	20.1	2
0	13434	20.1	2
0	13451	20.15	2
0	13452	20.15	2
0	13453	20.15	2
0	13454	20.15	2
0	13463	20.2	2
0	13464	20.2	2
0	13465	20.2	2
0	13466	20.2	2
0	13467	20.2	2
0	13468	20.2	2
0	13469	20.2	2
0	13470	20.2	2
0	13487	20.25	2
0	13488	20.25	2
0	13489	20.25	2
0	13490	20.25	2
0	13499	20.3	2
0	13500	20.3	2
0	13501	20.3	2
0	13502	20.3	2
0	13503	20.3	2
0	13504	20.3	2
0	13505	20.3	2
0	13506	20.3	2
0	13523	20.35	2
0	13524	20.35	2
0	13525	20.35	2
0	13526	20.35	2
0	13535	20.4	2
0	13536	20.4	2
0	13537	20.4	2
0	13538	20.4	2
0	13539	20.4	2
0	13540	20.4	2
0	13541	20.4	2
0	13542	20.4	2
0	13562	20.45	2
0	13563	20.45	2
0	13564	20.45	2
0	13565	20.45	2
0	13574	20.5	2
0	13575	20.5	2
0	13576	20.5	2
0	13577	20.5	2
0	13578	20.5	2
0	13579	20.5	2
0	13580	20.5	2
0	13581	20.5	2
0	13598	20.55	2
0	13599	20.55	2
0	13600	20.55	2
0	13601	20.55	2
0	13610	20.6	2
0	13611	20.6	2
0	13612	20.6	2
0	13613	20.6	2
0	13614	20.6	2
0	13615	20.6	2
0	13616	20.6	2
0	13617	20.6	2
0	13634	20.65	2
0	13635	20.65	2
0	13636	20.65	2
0	13637	20.65	2
0	13649	20.7	2
0	13650	20.7	2
0	13651	20.7	2
0	13652	20.7	2
0	13653	20.7	2
0	13654	20.7	2
0	13655	20.7	2
0	13656	20.7	2
0	13673	20.75	2
0	13674	20.75	2
0	13675	20.75	2
0	13676	20.75	2
0	13685	20.8	2
0	13686	20.8	2
0	13687	20.8	2
0	13688	20.8	2
0	13689	20.8	2
0	13690	20.8	2
0	13691	20.8	2
0	13692	20.8	2
0	13712	20.85	2
0	13713	20.85	2
0	13714	20.85	2
0	13715	20.85	2
0	13724	20.9	2
0	13725	20.9	2
0	13726	20.9	2
0	13727	20.9	2
0	13728	20.9	2
0	13729	20.9	2
0	13730	20.9	2
0	13731	20.9	2
0	13748	20.95	2
0	13749	20.95	2
0	13750	20.95	2
0	13751	20.95	2
0	13760	21	2
0	13761	21	2
0	13762	21	2
0	13763	21	2
0	13764	21	2
0	13765	21	2
0	13766	21	2
0	13767	21	2
0	13784	21.05	2
0	13785	21.05	2
0	13786	21.05	2
0	13787	21.05	2
0	13796	21.1	2
0	13797	21.1	2
0	13798	21.1	2
0	13799	21.1	2
0	13800	21.1	2
0	13801	21.1	2
0	13802	21.1	2
0	13803	21.1	2
0	13833	21.15	2
0	13834	21.15	2
0	13835	21.15	2
0	13836	21.15	2
0	13845	21.2	2
0	13846	21.2	2
0	13847	21.2	2
0	13848	21.2	2
0	13849	21.2	2
0	13850	21.2	2
0	13851	21.2	2
0	13852	21.2	2
0	13869	21.25	2
0	13870	21.25	2
0	13871	21.25	2
0	13872	21.25	2
0	13901	21.3	2
0	13902	21.3	2
0	13903	21.3	2
0	13904	21.3	2
0	13905	21.3	2
0	13906	21.3	2
0	13907	21.3	2
0	13908	21.3	2
0	13925	21.35	2
0	13926	21.35	2
0	13927	21.35	2
0	13928	21.35	2
0	13937	21.4	2
0	13938	21.4	2
0	13939	21.4	2
0	13940	21.4	2
0	13941	21.4	2
0	13942	21.4	2
0	13943	21.4	2
0	13944	21.4	2
0	13974	21.45	2
0	13975	21.45	2
0	13976	21.45	2
0	13977	21.45	2
0	13986	21.5	2
0	13987	21.5	2
0	13988	21.5	2
0	13989	21.5	2
0	13990	21.5	2
0	13991	21.5	2
0	13992	21.5	2
0	13993	21.5	2
0	14061	21.55	2
0	14062	21.55	2
0	14063	21.55	2
0	14064	21.55	2
0	14091	21.6	2
0	14092	21.6	2
0	14093	21.6	2
0	14094	21.6	2
0	14095	21.6	2
0	14096	21.6	2
0	14097	21.6	2
0	14098	21.6	2
0	14146	21.65	2
0	14147	21.65	2
0	14148	21.65	2
0	14149	21.65	2
0	14190	21.7	2
0	14191	21.7	2
0	14192	21.7	2
0	14193	21.7	2
0	14194	21.7	2
0	14195	21.7	2
0	14196	21.7	2
0	14197	21.7	2
0	14242	21.75	2
0	14243	21.75	2
0	14244	21.75	2
0	14245	21.75	2
0	14274	21.8	2
0	14275	21.8	2
0	14276	21.8	2
0	14277	21.8	2
0	14278	21.8	2
0	14279	21.8	2
0	14280	21.8	2
0	14281	21.8	2
0	14314	21.85	2
0	14315	21.85	2
0	14316	21.85	2
0	14317	21.85	2
0	14326	21.9	2
0	14327	21.9	2
0	14328	21.9	2
0	14329	21.9	2
0	14330	21.9	2
0	14331	21.9	2
0	14332	21.9	2
0	14333	21.9	2
0	14350	21.95	2
0	14351	21.95	2
0	14352	21.95	2
0	14353	21.95	2
0	14365	22	2
0	14366	22	2
0	14367	22	2
0	14368	22	2
0	14369	22	2
0	14370	22	2
0	14371	22	2
0	14372	22	2
0	14399	22.05	2
0	14400	22.05	2
0	14401	22.05	2
0	14402	22.05	2
0	14421	22.1	2
0	14422	22.1	2
0	14423	22.1	2
0	14424	22.1	2
0	14425	22.1	2
0	14426	22.1	2
0	14427	22.1	2
0	14428	22.1	2
0	14445	22.15	2
0	14446	22.15	2
0	14447	22.15	2
0	14448	22.15	2
0	14460	22.2	2
0	14461	22.2	2
0	14462	22.2	2
0	14463	22.2	2
0	14464	22.2	2
0	14465	22.2	2
0	14466	22.2	2
0	14467	22.2	2
0	14494	22.25	2
0	14495	22.25	2
0	14496	22.25	2
0	14497	22.25	2
0	14506	22.3	2
0	14507	22.3	2
0	14508	22.3	2
0	14509	22.3	2
0	14510	22.3	2
0	14511	22.3	2
0	14512	22.3	2
0	14513	22.3	2
0	14530	22.35	2
0	14531	22.35	2
0	14532	22.35	2
0	14533	22.35	2
0	14542	22.4	2
0	14543	22.4	2
0	14544	22.4	2
0	14545	22.4	2
0	14546	22.4	2
0	14547	22.4	2
0	14548	22.4	2
0	14549	22.4	2
0	14566	22.45	2
0	14567	22.45	2
0	14568	22.45	2
0	14569	22.45	2
0	14578	22.5	2
0	14579	22.5	2
0	14580	22.5	2
0	14581	22.5	2
0	14582	22.5	2
0	14583	22.5	2
0	14584	22.5	2
0	14585	22.5	2
0	14602	22.55	2
0	14603	22.55	2
0	14604	22.55	2
0	14605	22.55	2
0	14614	22.6	2
0	14615	22.6	2
0	14616	22.6	2
0	14617	22.6	2
0	14618	22.6	2
0	14619	22.6	2
0	14620	22.6	2
0	14621	22.6	2
0	14641	22.65	2
0	14642	22.65	2
0	14643	22.65	2
0	14644	22.65	2
0	14653	22.7	2
0	14654	22.7	2
0	14655	22.7	2
0	14656	22.7	2
0	14657	22.7	2
0	14658	22.7	2
0	14659	22.7	2
0	14660	22.7	2
0	14677	22.75	2
0	14678	22.75	2
0	14679	22.75	2
0	14680	22.75	2
0	14689	22.8	2
0	14690	22.8	2
0	14691	22.8	2
0	14692	22.8	2
0	14693	22.8	2
0	14694	22.8	2
0	14695	22.8	2
0	14696	22.8	2
0	14713	22.85	2
0	14714	22.85	2
0	14715	22.85	2
0	14716	22.85	2
0	14725	22.9	2
0	14726	22.9	2
0	14727	22.9	2
0	14728	22.9	2
0	14729	22.9	2
0	14730	22.9	2
0	14731	22.9	2
0	14732	22.9	2
0	14749	22.95	2
0	14750	22.95	2
0	14751	22.95	2
0	14752	22.95	2
0	14761	23	2
0	14762	23	2
0	14763	23	2
0	14764	23	2
0	14765	23	2
0	14766	23	2
0	14767	23	2
0	14768	23	2
0	14785	23.05	2
0	14786	23.05	2
0	14787	23.05	2
0	14788	23.05	2
0	14797	23.1	2
0	14798	23.1	2
0	14799	23.1	2
0	14800	23.1	2
0	14801	23.1	2
0	14802	23.1	2
0	14803	23.1	2
0	14804	23.1	2
0	14821	23.15	2
0	14822	23.15	2
0	14823	23.15	2
0	14824	23.15	2
0	14833	23.2	2
0	14834	23.2	2
0	14835	23.2	2
0	14836	23.2	2
0	14837	23.2	2
0	14838	23.2	2
0	14839	23.2	2
0	14840	23.2	2
0	14857	23.25	2
0	14858	23.25	2
0	14859	23.25	2
0	14860	23.25	2
0	14879	23.3	2
0	14880	23.3	2
0	14881	23.3	2
0	14882	23.3	2
0	14883	23.3	2
0	14884	23.3	2
0	14885	23.3	2
0	14886	23.3	2
0	14903	23.35	2
0	14904	23.35	2
0	14905	23.35	2
0	14906	23.35	2
0	14915	23.4	2
0	14916	23.4	2
0	14917	23.4	2
0	14918	23.4	2
0	14919	23.4	2
0	14920	23.4	2
0	14921	23.4	2
0	14922	23.4	2
0	14952	23.45	2
0	14953	23.45	2
0	14954	23.45	2
0	14955	23.45	2
0	14964	23.5	2
0	14965	23.5	2
0	14966	23.5	2
0	14967	23.5	2
0	14968	23.5	2
0	14969	23.5	2
0	14970	23.5	2
0	14971	23.5	2
0	14988	23.55	2
0	14989	23.55	2
0	14990	23.55	2
0	14991	23.55	2
0	15010	23.6	2
0	15011	23.6	2
0	15012	23.6	2
0	15013	23.6	2
0	15014	23.6	2
0	15015	23.6	2
0	15016	23.6	2
0	15017	23.6	2
0	15044	23.65	2
0	15045	23.65	2
0	15046	23.65	2
0	15047	23.65	2
0	15056	23.7	2
0	15057	23.7	2
0	15058	23.7	2
0	15059	23.7	2
0	15060	23.7	2
0	15061	23.7	2
0	15062	23.7	2
0	15063	23.7	2
0	15080	23.75	2
0	15081	23.75	2
0	15082	23.75	2
0	15083	23.75	2
0	15131	23.8	2
0	15132	23.8	2
0	15133	23.8	2
0	15134	23.8	2
0	15135	23.8	2
0	15136	23.8	2
0	15137	23.8	2
0	15138	23.8	2
0	15192	23.85	2
0	15193	23.85	2
0	15194	23.85	2
0	15195	23.85	2
0	15223	23.9	2
0	15224	23.9	2
0	15225	23.9	2
0	15226	23.9	2
0	15227	23.9	2
0	15228	23.9	2
0	15229	23.9	2
0	15230	23.9	2
0	15247	23.95	2
0	15248	23.95	2
0	15249	23.95	2
0	15250	23.95	2
0	15282	24	2
0	15283	24	2
0	15284	24	2
0	15285	24	2
0	15286	24	2
0	15287	24	2
0	15288	24	2
0	15289	24	2
0	15306	24.05	2
0	15307	24.05	2
0	15308	24.05	2
0	15309	24.05	2
0	15318	24.1	2
0	15319	24.1	2
0	15320	24.1	2
0	15321	24.1	2
0	15322	24.1	2
0	15323	24.1	2
0	15324	24.1	2
0	15325	24.1	2
0	15352	24.15	2
0	15353	24.15	2
0	15354	24.15	2
0	15355	24.15	2
0	15367	24.2	2
0	15368	24.2	2
0	15369	24.2	2
0	15370	24.2	2
0	15371	24.2	2
0	15372	24.2	2
0	15373	24.2	2
0	15374	24.2	2
0	15391	24.25	2
0	15392	24.25	2
0	15393	24.25	2
0	15394	24.25	2
0	15403	24.3	2
0	15404	24.3	2
0	15405	24.3	2
0	15406	24.3	2
0	15407	24.3	2
0	15408	24.3	2
0	15409	24.3	2
0	15410	24.3	2
0	15427	24.35	2
0	15428	24.35	2
0	15429	24.35	2
0	15430	24.35	2
0	15452	24.4	2
0	15453	24.4	2
0	15454	24.4	2
0	15455	24.4	2
0	15456	24.4	2
0	15457	24.4	2
0	15458	24.4	2
0	15459	24.4	2
0	15476	24.45	2
0	15477	24.45	2
0	15478	24.45	2
0	15479	24.45	2
0	15488	24.5	2
0	15489	24.5	2
0	15490	24.5	2
0	15491	24.5	2
0	15492	24.5	2
0	15493	24.5	2
0	15494	24.5	2
0	15495	24.5	2
0	15568	24.55	2
0	15569	24.55	2
0	15570	24.55	2
0	15571	24.55	2
0	15611	24.6	2
0	15612	24.6	2
0	15613	24.6	2
0	15614	24.6	2
0	15615	24.6	2
0	15616	24.6	2
0	15617	24.6	2
0	15618	24.6	2
0	15663	24.65	2
0	15664	24.65	2
0	15665	24.65	2
0	15666	24.65	2
0	15689	24.7	2
0	15690	24.7	2
0	15691	24.7	2
0	15692	24.7	2
0	15693	24.7	2
0	15694	24.7	2
0	15695	24.7	2
0	15696	24.7	2
0	15713	24.75	2
0	15714	24.75	2
0	15715	24.75	2
0	15716	24.75	2
0	15725	24.8	2
0	15726	24.8	2
0	15727	24.8	2
0	15728	24.8	2
0	15729	24.8	2
0	15730	24.8	2
0	15731	24.8	2
0	15732	24.8	2
0	15749	24.85	2
0	15750	24.85	2
0	15751	24.85	2
0	15752	24.85	2
0	15764	24.9	2
0	15765	24.9	2
0	15766	24.9	2
0	15767	24.9	2
0	15768	24.9	2
0	15769	24.9	2
0	15770	24.9	2
0	15771	24.9	2
0	15801	24.95	2
0	15802	24.95	2
0	15803	24.95	2
0	15804	24.95	2
0	15813	25	2
0	15814	25	2
0	15815	25	2
0	15816	25	2
0	15817	25	2
0	15818	25	2
0	15819	25	2
0	15820	25	2
0	15847	25.05	2
0	15848	25.05	2
0	15849	25.05	2
0	15850	25.05	2
0	15903	25.1	2
0	15904	25.1	2
0	15905	25.1	2
0	15906	25.1	2
0	15907	25.1	2
0	15908	25.1	2
0	15909	25.1	2
0	15910	25.1	2
0	15954	25.15	2
0	15955	25.15	2
0	15956	25.15	2
0	15957	25.15	2
0	15966	25.2	2
0	15967	25.2	2
0	15968	25.2	2
0	15969	25.2	2
0	15970	25.2	2
0	15971	25.2	2
0	15972	25.2	2
0	15973	25.2	2
0	16003	25.25	2
0	16004	25.25	2
0	16005	25.25	2
0	16006	25.25	2
0	16015	25.3	2
0	16016	25.3	2
0	16017	25.3	2
0	16018	25.3	2
0	16019	25.3	2
0	16020	25.3	2
0	16021	25.3	2
0	16022	25.3	2
0	16039	25.35	2
0	16040	25.35	2
0	16041	25.35	2
0	16042	25.35	2
0	16054	25.4	2
0	16055	25.4	2
0	16056	25.4	2
0	16057	25.4	2
0	16058	25.4	2
0	16059	25.4	2
0	16060	25.4	2
0	16061	25.4	2
0	16091	25.45	2
0	16092	25.45	2
0	16093	25.45	2
0	16094	25.45	2
0	16106	25.5	2
0	16107	25.5	2
0	16108	25.5	2
0	16109	25.5	2
0	16110	25.5	2
0	16111	25.5	2
0	16112	25.5	2
0	16113	25.5	2
0	16130	25.55	2
0	16131	25.55	2
0	16132	25.55	2
0	16133	25.55	2
0	16155	25.6	2
0	16156	25.6	2
0	16157	25.6	2
0	16158	25.6	2
0	16159	25.6	2
0	16160	25.6	2
0	16161	25.6	2
0	16162	25.6	2
0	16189	25.65	2
0	16190	25.65	2
0	16191	25.65	2
0	16192	25.65	2
0	16201	25.7	2
0	16202	25.7	2
0	16203	25.7	2
0	16204	25.7	2
0	16205	25.7	2
0	16206	25.7	2
0	16207	25.7	2
0	16208	25.7	2
0	16225	25.75	2
0	16226	25.75	2
0	16227	25.75	2
0	16228	25.75	2
0	16243	25.8	2
0	16244	25.8	2
0	16245	25.8	2
0	16246	25.8	2
0	16247	25.8	2
0	16248	25.8	2
0	16249	25.8	2
0	16250	25.8	2
0	16267	25.85	2
0	16268	25.85	2
0	16269	25.85	2
0	16270	25.85	2
0	16279	25.9	2
0	16280	25.9	2
0	16281	25.9	2
0	16282	25.9	2
0	16283	25.9	2
0	16284	25.9	2
0	16285	25.9	2
0	16286	25.9	2
0	16303	25.95	2
0	16304	25.95	2
0	16305	25.95	2
0	16306	25.95	2
0	16325	26	2
0	16326	26	2
0	16327	26	2
0	16328	26	2
0	16329	26	2
0	16330	26	2
0	16331	26	2
0	16332	26	2
0	16349	26.05	2
0	16350	26.05	2
0	16351	26.05	2
0	16352	26.05	2
0	16361	26.1	2
0	16362	26.1	2
0	16363	26.1	2
0	16364	26.1	2
0	16365	26.1	2
0	16366	26.1	2
0	16367	26.1	2
0	16368	26.1	2
0	16388	26.15	2
0	16389	26.15	2
0	16390	26.15	2
0	16391	26.15	2
0	16400	26.2	2
0	16401	26.2	2
0	16402	26.2	2
0	16403	26.2	2
0	16404	26.2	2
0	16405	26.2	2
0	16406	26.2	2
0	16407	26.2	2
0	16424	26.25	2
0	16425	26.25	2
0	16426	26.25	2
0	16427	26.25	2
0	16436	26.3	2
0	16437	26.3	2
0	16438	26.3	2
0	16439	26.3	2
0	16440	26.3	2
0	16441	26.3	2
0	16442	26.3	2
0	16443	26.3	2
0	16460	26.35	2
0	16461	26.35	2
0	16462	26.35	2
0	16463	26.35	2
0	16472	26.4	2
0	16473	26.4	2
0	16474	26.4	2
0	16475	26.4	2
0	16476	26.4	2
0	16477	26.4	2
0	16478	26.4	2
0	16479	26.4	2
0	16496	26.45	2
0	16497	26.45	2
0	16498	26.45	2
0	16499	26.45	2
0	16508	26.5	2
0	16509	26.5	2
0	16510	26.5	2
0	16511	26.5	2
0	16512	26.5	2
0	16513	26.5	2
0	16514	26.5	2
0	16515	26.5	2
0	16532	26.55	2
0	16533	26.55	2
0	16534	26.55	2
0	16535	26.55	2
0	16544	26.6	2
0	16545	26.6	2
0	16546	26.6	2
0	16547	26.6	2
0	16548	26.6	2
0	16549	26.6	2
0	16550	26.6	2
0	16551	26.6	2
0	16568	26.65	2
0	16569	26.65	2
0	16570	26.65	2
0	16571	26.65	2
0	16602	26.7	2
0	16603	26.7	2
0	16604	26.7	2
0	16605	26.7	2
0	16606	26.7	2
0	16607	26.7	2
0	16608	26.7	2
0	16609	26.7	2
0	16626	26.75	2
0	16627	26.75	2
0	16628	26.75	2
0	16629	26.75	2
0	16638	26.8	2
0	16639	26.8	2
0	16640	26.8	2
0	16641	26.8	2
0	16642	26.8	2
0	16643	26.8	2
0	16644	26.8	2
0	16645	26.8	2
0	16675	26.85	2
0	16676	26.85	2
0	16677	26.85	2
0	16678	26.85	2
0	16687	26.9	2
0	16688	26.9	2
0	16689	26.9	2
0	16690	26.9	2
0	16691	26.9	2
0	16692	26.9	2
0	16693	26.9	2
0	16694	26.9	2
0	16711	26.95	2
0	16712	26.95	2
0	16713	26.95	2
0	16714	26.95	2
0	16733	27	2
0	16734	27	2
0	16735	27	2
0	16736	27	2
0	16737	27	2
0	16738	27	2
0	16739	27	2
0	16740	27	2
0	16757	27.05	2
0	16758	27.05	2
0	16759	27.05	2
0	16760	27.05	2
0	16769	27.1	2
0	16770	27.1	2
0	16771	27.1	2
0	16772	27.1	2
0	16773	27.1	2
0	16774	27.1	2
0	16775	27.1	2
0	16776	27.1	2
0	16806	27.15	2
0	16807	27.15	2
0	16808	27.15	2
0	16809	27.15	2
0	16818	27.2	2
0	16819	27.2	2
0	16820	27.2	2
0	16821	27.2	2
0	16822	27.2	2
0	16823	27.2	2
0	16824	27.2	2
0	16825	27.2	2
0	16858	27.25	2
0	16859	27.25	2
0	16860	27.25	2
0	16861	27.25	2
0	16870	27.3	2
0	16871	27.3	2
0	16872	27.3	2
0	16873	27.3	2
0	16874	27.3	2
0	16875	27.3	2
0	16876	27.3	2
0	16877	27.3	2
0	16894	27.35	2
0	16895	27.35	2
0	16896	27.35	2
0	16897	27.35	2
0	16916	27.4	2
0	16917	27.4	2
0	16918	27.4	2
0	16919	27.4	2
0	16920	27.4	2
0	16921	27.4	2
0	16922	27.4	2
0	16923	27.4	2
0	16940	27.45	2
0	16941	27.45	2
0	16942	27.45	2
0	16943	27.45	2
0	16952	27.5	2
0	16953	27.5	2
0	16954	27.5	2
0	16955	27.5	2
0	16956	27.5	2
0	16957	27.5	2
0	16958	27.5	2
0	16959	27.5	2
0	17012	27.55	2
0	17013	27.55	2
0	17014	27.55	2
0	17015	27.55	2
0	17068	27.6	2
0	17069	27.6	2
0	17070	27.6	2
0	17071	27.6	2
0	17072	27.6	2
0	17073	27.6	2
0	17074	27.6	2
0	17075	27.6	2
0	17092	27.65	2
0	17093	27.65	2
0	17094	27.65	2
0	17095	27.65	2
0	17114	27.7	2
0	17115	27.7	2
0	17116	27.7	2
0	17117	27.7	2
0	17118	27.7	2
0	17119	27.7	2
0	17120	27.7	2
0	17121	27.7	2
0	17148	27.75	2
0	17149	27.75	2
0	17150	27.75	2
0	17151	27.75	2
0	17163	27.8	2
0	17164	27.8	2
0	17165	27.8	2
0	17166	27.8	2
0	17167	27.8	2
0	17168	27.8	2
0	17169	27.8	2
0	17170	27.8	2
0	17187	27.85	2
0	17188	27.85	2
0	17189	27.85	2
0	17190	27.85	2
0	17199	27.9	2
0	17200	27.9	2
0	17201	27.9	2
0	17202	27.9	2
0	17203	27.9	2
0	17204	27.9	2
0	17205	27.9	2
0	17206	27.9	2
0	17223	27.95	2
0	17224	27.95	2
0	17225	27.95	2
0	17226	27.95	2
0	17235	28	2
0	17236	28	2
0	17237	28	2
0	17238	28	2
0	17239	28	2
0	17240	28	2
0	17241	28	2
0	17242	28	2
0	17259	28.05	2
0	17260	28.05	2
0	17261	28.05	2
0	17262	28.05	2
0	17274	28.1	2
0	17275	28.1	2
0	17276	28.1	2
0	17277	28.1	2
0	17278	28.1	2
0	17279	28.1	2
0	17280	28.1	2
0	17281	28.1	2
0	17311	28.15	2
0	17312	28.15	2
0	17313	28.15	2
0	17314	28.15	2
0	17323	28.2	2
0	17324	28.2	2
0	17325	28.2	2
0	17326	28.2	2
0	17327	28.2	2
0	17328	28.2	2
0	17329	28.2	2
0	17330	28.2	2
0	17347	28.25	2
0	17348	28.25	2
0	17349	28.25	2
0	17350	28.25	2
0	17362	28.3	2
0	17363	28.3	2
0	17364	28.3	2
0	17365	28.3	2
0	17366	28.3	2
0	17367	28.3	2
0	17368	28.3	2
0	17369	28.3	2
0	17386	28.35	2
0	17387	28.35	2
0	17388	28.35	2
0	17389	28.35	2
0	17398	28.4	2
0	17399	28.4	2
0	17400	28.4	2
0	17401	28.4	2
0	17402	28.4	2
0	17403	28.4	2
0	17404	28.4	2
0	17405	28.4	2
0	17432	28.45	2
0	17433	28.45	2
0	17434	28.45	2
0	17435	28.45	2
0	17444	28.5	2
0	17445	28.5	2
0	17446	28.5	2
0	17447	28.5	2
0	17448	28.5	2
0	17449	28.5	2
0	17450	28.5	2
0	17451	28.5	2
0	17468	28.55	2
0	17469	28.55	2
0	17470	28.55	2
0	17471	28.55	2
0	17502	28.6	2
0	17503	28.6	2
0	17504	28.6	2
0	17505	28.6	2
0	17506	28.6	2
0	17507	28.6	2
0	17508	28.6	2
0	17509	28.6	2
0	17526	28.65	2
0	17527	28.65	2
0	17528	28.65	2
0	17529	28.65	2
0	17538	28.7	2
0	17539	28.7	2
0	17540	28.7	2
0	17541	28.7	2
0	17542	28.7	2
0	17543	28.7	2
0	17544	28.7	2
0	17545	28.7	2
0	17562	28.75	2
0	17563	28.75	2
0	17564	28.75	2
0	17565	28.75	2
0	17574	28.8	2
0	17575	28.8	2
0	17576	28.8	2
0	17577	28.8	2
0	17578	28.8	2
0	17579	28.8	2
0	17580	28.8	2
0	17581	28.8	2
0	17598	28.85	2
0	17599	28.85	2
0	17600	28.85	2
0	17601	28.85	2
0	17610	28.9	2
0	17611	28.9	2
0	17612	28.9	2
0	17613	28.9	2
0	17614	28.9	2
0	17615	28.9	2
0	17616	28.9	2
0	17617	28.9	2
0	17634	28.95	2
0	17635	28.95	2
0	17636	28.95	2
0	17637	28.95	2
0	17652	29	2
0	17653	29	2
0	17654	29	2
0	17655	29	2
0	17656	29	2
0	17657	29	2
0	17658	29	2
0	17659	29	2
0	17676	29.05	2
0	17677	29.05	2
0	17678	29.05	2
0	17679	29.05	2
0	17688	29.1	2
0	17689	29.1	2
0	17690	29.1	2
0	17691	29.1	2
0	17692	29.1	2
0	17693	29.1	2
0	17694	29.1	2
0	17695	29.1	2
0	17712	29.15	2
0	17713	29.15	2
0	17714	29.15	2
0	17715	29.15	2
0	17724	29.2	2
0	17725	29.2	2
0	17726	29.2	2
0	17727	29.2	2
0	17728	29.2	2
0	17729	29.2	2
0	17730	29.2	2
0	17731	29.2	2
0	17748	29.25	2
0	17749	29.25	2
0	17750	29.25	2
0	17751	29.25	2
0	17773	29.3	2
0	17774	29.3	2
0	17775	29.3	2
0	17776	29.3	2
0	17777	29.3	2
0	17778	29.3	2
0	17779	29.3	2
0	17780	29.3	2
0	17797	29.35	2
0	17798	29.35	2
0	17799	29.35	2
0	17800	29.35	2
0	17812	29.4	2
0	17813	29.4	2
0	17814	29.4	2
0	17815	29.4	2
0	17816	29.4	2
0	17817	29.4	2
0	17818	29.4	2
0	17819	29.4	2
0	17864	29.45	2
0	17865	29.45	2
0	17866	29.45	2
0	17867	29.45	2
0	17876	29.5	2
0	17877	29.5	2
0	17878	29.5	2
0	17879	29.5	2
0	17880	29.5	2
0	17881	29.5	2
0	17882	29.5	2
0	17883	29.5	2
0	17900	29.55	2
0	17901	29.55	2
0	17902	29.55	2
0	17903	29.55	2
0	17912	29.6	2
0	17913	29.6	2
0	17914	29.6	2
0	17915	29.6	2
0	17916	29.6	2
0	17917	29.6	2
0	17918	29.6	2
0	17919	29.6	2
0	17936	29.65	2
0	17937	29.65	2
0	17938	29.65	2
0	17939	29.65	2
0	17948	29.7	2
0	17949	29.7	2
0	17950	29.7	2
0	17951	29.7	2
0	17952	29.7	2
0	17953	29.7	2
0	17954	29.7	2
0	17955	29.7	2
0	17982	29.75	2
0	17983	29.75	2
0	17984	29.75	2
0	17985	29.75	2
0	17994	29.8	2
0	17995	29.8	2
0	17996	29.8	2
0	17997	29.8	2
0	17998	29.8	2
0	17999	29.8	2
0	18000	29.8	2
0	18001	29.8	2
0	18021	29.85	2
0	18022	29.85	2
0	18023	29.85	2
0	18024	29.85	2
0	18036	29.9	2
0	18037	29.9	2
0	18038	29.9	2
0	18039	29.9	2
0	18040	29.9	2
0	18041	29.9	2
0	18042	29.9	2
0	18043	29.9	2
0	18060	29.95	2
0	18061	29.95	2
0	18062	29.95	2
0	18063	29.95	2
0	18072	30	2
0	18073	30	2
0	18074	30	2
0	18075	30	2
0	18076	30	2
0	18077	30	2
0	18078	30	2
0	18079	30	2
0	18096	30.05	2
0	18097	30.05	2
0	18098	30.05	2
0	18099	30.05	2
0	18108	30.1	2
0	18109	30.1	2
0	18110	30.1	2
0	18111	30.1	2
0	18112	30.1	2
0	18113	30.1	2
0	18114	30.1	2
0	18115	30.1	2
0	18132	30.15	2
0	18133	30.15	2
0	18134	30.15	2
0	18135	30.15	2
0	18147	30.2	2
0	18148	30.2	2
0	18149	30.2	2
0	18150	30.2	2
0	18151	30.2	2
0	18152	30.2	2
0	18153	30.2	2
0	18154	30.2	2
0	18171	30.25	2
0	18172	30.25	2
0	18173	30.25	2
0	18174	30.25	2
0	18183	30.3	2
0	18184	30.3	2
0	18185	30.3	2
0	18186	30.3	2
0	18187	30.3	2
0	18188	30.3	2
0	18189	30.3	2
0	18190	30.3	2
0	18207	30.35	2
0	18208	30.35	2
0	18209	30.35	2
0	18210	30.35	2
0	18219	30.4	2
0	18220	30.4	2
0	18221	30.4	2
0	18222	30.4	2
0	18223	30.4	2
0	18224	30.4	2
0	18225	30.4	2
0	18226	30.4	2
0	18243	30.45	2
0	18244	30.45	2
0	18245	30.45	2
0	18246	30.45	2
0	18255	30.5	2
0	18256	30.5	2
0	18257	30.5	2
0	18258	30.5	2
0	18259	30.5	2
0	18260	30.5	2
0	18261	30.5	2
0	18262	30.5	2
0	18279	30.55	2
0	18280	30.55	2
0	18281	30.55	2
0	18282	30.55	2
0	18307	30.6	2
0	18308	30.6	2
0	18309	30.6	2
0	18310	30.6	2
0	18311	30.6	2
0	18312	30.6	2
0	18313	30.6	2
0	18314	30.6	2
0	18331	30.65	2
0	18332	30.65	2
0	18333	30.65	2
0	18334	30.65	2
0	18343	30.7	2
0	18344	30.7	2
0	18345	30.7	2
0	18346	30.7	2
0	18347	30.7	2
0	18348	30.7	2
0	18349	30.7	2
0	18350	30.7	2
0	18392	30.75	2
0	18393	30.75	2
0	18394	30.75	2
0	18395	30.75	2
0	18404	30.8	2
0	18405	30.8	2
0	18406	30.8	2
0	18407	30.8	2
0	18408	30.8	2
0	18409	30.8	2
0	18410	30.8	2
0	18411	30.8	2
0	18428	30.85	2
0	18429	30.85	2
0	18430	30.85	2
0	18431	30.85	2
0	18440	30.9	2
0	18441	30.9	2
0	18442	30.9	2
0	18443	30.9	2
0	18444	30.9	2
0	18445	30.9	2
0	18446	30.9	2
0	18447	30.9	2
0	18464	30.95	2
0	18465	30.95	2
0	18466	30.95	2
0	18467	30.95	2
0	18479	31	2
0	18480	31	2
0	18481	31	2
0	18482	31	2
0	18483	31	2
0	18484	31	2
0	18485	31	2
0	18486	31	2
0	18506	31.05	2
0	18507	31.05	2
0	18508	31.05	2
0	18509	31.05	2
0	18518	31.1	2
0	18519	31.1	2
0	18520	31.1	2
0	18521	31.1	2
0	18522	31.1	2
0	18523	31.1	2
0	18524	31.1	2
0	18525	31.1	2
0	18555	31.15	2
0	18556	31.15	2
0	18557	31.15	2
0	18558	31.15	2
0	18567	31.2	2
0	18568	31.2	2
0	18569	31.2	2
0	18570	31.2	2
0	18571	31.2	2
0	18572	31.2	2
0	18573	31.2	2
0	18574	31.2	2
0	18591	31.25	2
0	18592	31.25	2
0	18593	31.25	2
0	18594	31.25	2
0	18616	31.3	2
0	18617	31.3	2
0	18618	31.3	2
0	18619	31.3	2
0	18620	31.3	2
0	18621	31.3	2
0	18622	31.3	2
0	18623	31.3	2
0	18653	31.35	2
0	18654	31.35	2
0	18655	31.35	2
0	18656	31.35	2
0	18665	31.4	2
0	18666	31.4	2
0	18667	31.4	2
0	18668	31.4	2
0	18669	31.4	2
0	18670	31.4	2
0	18671	31.4	2
0	18672	31.4	2
0	18699	31.45	2
0	18700	31.45	2
0	18701	31.45	2
0	18702	31.45	2
0	18721	31.5	2
0	18722	31.5	2
0	18723	31.5	2
0	18724	31.5	2
0	18725	31.5	2
0	18726	31.5	2
0	18727	31.5	2
0	18728	31.5	2
0	18745	31.55	2
0	18746	31.55	2
0	18747	31.55	2
0	18748	31.55	2
0	18773	31.6	2
0	18774	31.6	2
0	18775	31.6	2
0	18776	31.6	2
0	18777	31.6	2
0	18778	31.6	2
0	18779	31.6	2
0	18780	31.6	2
0	18797	31.65	2
0	18798	31.65	2
0	18799	31.65	2
0	18800	31.65	2
0	18822	31.7	2
0	18823	31.7	2
0	18824	31.7	2
0	18825	31.7	2
0	18826	31.7	2
0	18827	31.7	2
0	18828	31.7	2
0	18829	31.7	2
0	18846	31.75	2
0	18847	31.75	2
0	18848	31.75	2
0	18849	31.75	2
0	18858	31.8	2
0	18859	31.8	2
0	18860	31.8	2
0	18861	31.8	2
0	18862	31.8	2
0	18863	31.8	2
0	18864	31.8	2
0	18865	31.8	2
0	18885	31.85	2
0	18886	31.85	2
0	18887	31.85	2
0	18888	31.85	2
0	18910	31.9	2
0	18911	31.9	2
0	18912	31.9	2
0	18913	31.9	2
0	18914	31.9	2
0	18915	31.9	2
0	18916	31.9	2
0	18917	31.9	2
0	18934	31.95	2
0	18935	31.95	2
0	18936	31.95	2
0	18937	31.95	2
0	18959	32	2
0	18960	32	2
0	18961	32	2
0	18962	32	2
0	18963	32	2
0	18964	32	2
0	18965	32	2
0	18966	32	2
0	19083	32.05	2
0	19084	32.05	2
0	19085	32.05	2
0	19086	32.05	2
0	19128	32.1	2
0	19129	32.1	2
0	19130	32.1	2
0	19131	32.1	2
0	19132	32.1	2
0	19133	32.1	2
0	19134	32.1	2
0	19135	32.1	2
0	19187	32.15	2
0	19188	32.15	2
0	19189	32.15	2
0	19190	32.15	2
0	19224	32.2	2
0	19225	32.2	2
0	19226	32.2	2
0	19227	32.2	2
0	19228	32.2	2
0	19229	32.2	2
0	19230	32.2	2
0	19231	32.2	2
0	19261	32.25	2
0	19262	32.25	2
0	19263	32.25	2
0	19264	32.25	2
0	19291	32.3	2
0	19292	32.3	2
0	19293	32.3	2
0	19294	32.3	2
0	19295	32.3	2
0	19296	32.3	2
0	19297	32.3	2
0	19298	32.3	2
0	19343	32.35	2
0	19344	32.35	2
0	19345	32.35	2
0	19346	32.35	2
0	19385	32.4	2
0	19386	32.4	2
0	19387	32.4	2
0	19388	32.4	2
0	19389	32.4	2
0	19390	32.4	2
0	19391	32.4	2
0	19392	32.4	2
0	19449	32.45	2
0	19450	32.45	2
0	19451	32.45	2
0	19452	32.45	2
0	19483	32.5	2
0	19484	32.5	2
0	19485	32.5	2
0	19486	32.5	2
0	19487	32.5	2
0	19488	32.5	2
0	19489	32.5	2
0	19490	32.5	2
0	19521	32.55	2
0	19522	32.55	2
0	19523	32.55	2
0	19524	32.55	2
0	19607	32.6	2
0	19608	32.6	2
0	19609	32.6	2
0	19610	32.6	2
0	19611	32.6	2
0	19612	32.6	2
0	19613	32.6	2
0	19614	32.6	2
0	19655	32.65	2
0	19656	32.65	2
0	19657	32.65	2
0	19658	32.65	2
0	19689	32.7	2
0	19690	32.7	2
0	19691	32.7	2
0	19692	32.7	2
0	19693	32.7	2
0	19694	32.7	2
0	19695	32.7	2
0	19696	32.7	2
0	19732	32.75	2
0	19733	32.75	2
0	19734	32.75	2
0	19735	32.75	2
0	19763	32.8	2
0	19764	32.8	2
0	19765	32.8	2
0	19766	32.8	2
0	19767	32.8	2
0	19768	32.8	2
0	19769	32.8	2
0	19770	32.8	2
0	19798	32.85	2
0	19799	32.85	2
0	19800	32.85	2
0	19801	32.85	2
0	19810	32.9	2
0	19811	32.9	2
0	19812	32.9	2
0	19813	32.9	2
0	19814	32.9	2
0	19815	32.9	2
0	19816	32.9	2
0	19817	32.9	2
0	19844	32.95	2
0	19845	32.95	2
0	19846	32.95	2
0	19847	32.95	2
0	19856	33	2
0	19857	33	2
0	19858	33	2
0	19859	33	2
0	19860	33	2
0	19861	33	2
0	19862	33	2
0	19863	33	2
0	19880	33.05	2
0	19881	33.05	2
0	19882	33.05	2
0	19883	33.05	2
0	19892	33.1	2
0	19893	33.1	2
0	19894	33.1	2
0	19895	33.1	2
0	19896	33.1	2
0	19897	33.1	2
0	19898	33.1	2
0	19899	33.1	2
0	19919	33.15	2
0	19920	33.15	2
0	19921	33.15	2
0	19922	33.15	2
0	19931	33.2	2
0	19932	33.2	2
0	19933	33.2	2
0	19934	33.2	2
0	19935	33.2	2
0	19936	33.2	2
0	19937	33.2	2
0	19938	33.2	2
0	19955	33.25	2
0	19956	33.25	2
0	19957	33.25	2
0	19958	33.25	2
0	19980	33.3	2
0	19981	33.3	2
0	19982	33.3	2
0	19983	33.3	2
0	19984	33.3	2
0	19985	33.3	2
0	19986	33.3	2
0	19987	33.3	2
0	20004	33.35	2
0	20005	33.35	2
0	20006	33.35	2
0	20007	33.35	2
0	20016	33.4	2
0	20017	33.4	2
0	20018	33.4	2
0	20019	33.4	2
0	20020	33.4	2
0	20021	33.4	2
0	20022	33.4	2
0	20023	33.4	2
0	20043	33.45	2
0	20044	33.45	2
0	20045	33.45	2
0	20046	33.45	2
0	20055	33.5	2
0	20056	33.5	2
0	20057	33.5	2
0	20058	33.5	2
0	20059	33.5	2
0	20060	33.5	2
0	20061	33.5	2
0	20062	33.5	2
0	20079	33.55	2
0	20080	33.55	2
0	20081	33.55	2
0	20082	33.55	2
0	20091	33.6	2
0	20092	33.6	2
0	20093	33.6	2
0	20094	33.6	2
0	20095	33.6	2
0	20096	33.6	2
0	20097	33.6	2
0	20098	33.6	2
0	20115	33.65	2
0	20116	33.65	2
0	20117	33.65	2
0	20118	33.65	2
0	20127	33.7	2
0	20128	33.7	2
0	20129	33.7	2
0	20130	33.7	2
0	20131	33.7	2
0	20132	33.7	2
0	20133	33.7	2
0	20134	33.7	2
0	20164	33.75	2
0	20165	33.75	2
0	20166	33.75	2
0	20167	33.75	2
0	20176	33.8	2
0	20177	33.8	2
0	20178	33.8	2
0	20179	33.8	2
0	20180	33.8	2
0	20181	33.8	2
0	20182	33.8	2
0	20183	33.8	2
0	20200	33.85	2
0	20201	33.85	2
0	20202	33.85	2
0	20203	33.85	2
0	20215	33.9	2
0	20216	33.9	2
0	20217	33.9	2
0	20218	33.9	2
0	20219	33.9	2
0	20220	33.9	2
0	20221	33.9	2
0	20222	33.9	2
0	20239	33.95	2
0	20240	33.95	2
0	20241	33.95	2
0	20242	33.95	2
0	20251	34	2
0	20252	34	2
0	20253	34	2
0	20254	34	2
0	20255	34	2
0	20256	34	2
0	20257	34	2
0	20258	34	2
0	20275	34.05	2
0	20276	34.05	2
0	20277	34.05	2
0	20278	34.05	2
0	20287	34.1	2
0	20288	34.1	2
0	20289	34.1	2
0	20290	34.1	2
0	20291	34.1	2
0	20292	34.1	2
0	20293	34.1	2
0	20294	34.1	2
0	20321	34.15	2
0	20322	34.15	2
0	20323	34.15	2
0	20324	34.15	2
0	20333	34.2	2
0	20334	34.2	2
0	20335	34.2	2
0	20336	34.2	2
0	20337	34.2	2
0	20338	34.2	2
0	20339	34.2	2
0	20340	34.2	2
0	20357	34.25	2
0	20358	34.25	2
0	20359	34.25	2
0	20360	34.25	2
0	20385	34.3	2
0	20386	34.3	2
0	20387	34.3	2
0	20388	34.3	2
0	20389	34.3	2
0	20390	34.3	2
0	20391	34.3	2
0	20392	34.3	2
0	20409	34.35	2
0	20410	34.35	2
0	20411	34.35	2
0	20412	34.35	2
0	20421	34.4	2
0	20422	34.4	2
0	20423	34.4	2
0	20424	34.4	2
0	20425	34.4	2
0	20426	34.4	2
0	20427	34.4	2
0	20428	34.4	2
0	20445	34.45	2
0	20446	34.45	2
0	20447	34.45	2
0	20448	34.45	2
0	20457	34.5	2
0	20458	34.5	2
0	20459	34.5	2
0	20460	34.5	2
0	20461	34.5	2
0	20462	34.5	2
0	20463	34.5	2
0	20464	34.5	2
0	20494	34.55	2
0	20495	34.55	2
0	20496	34.55	2
0	20497	34.55	2
0	20506	34.6	2
0	20507	34.6	2
0	20508	34.6	2
0	20509	34.6	2
0	20510	34.6	2
0	20511	34.6	2
0	20512	34.6	2
0	20513	34.6	2
0	20530	34.65	2
0	20531	34.65	2
0	20532	34.65	2
0	20533	34.65	2
0	20599	34.7	2
0	20600	34.7	2
0	20601	34.7	2
0	20602	34.7	2
0	20603	34.7	2
0	20604	34.7	2
0	20605	34.7	2
0	20606	34.7	2
0	20659	34.75	2
0	20660	34.75	2
0	20661	34.75	2
0	20662	34.75	2
0	20699	34.8	2
0	20700	34.8	2
0	20701	34.8	2
0	20702	34.8	2
0	20703	34.8	2
0	20704	34.8	2
0	20705	34.8	2
0	20706	34.8	2
0	20732	34.85	2
0	20733	34.85	2
0	20734	34.85	2
0	20735	34.85	2
0	20754	34.9	2
0	20755	34.9	2
0	20756	34.9	2
0	20757	34.9	2
0	20758	34.9	2
0	20759	34.9	2
0	20760	34.9	2
0	20761	34.9	2
0	20778	34.95	2
0	20779	34.95	2
0	20780	34.95	2
0	20781	34.95	2
0	20790	35	2
0	20791	35	2
0	20792	35	2
0	20793	35	2
0	20794	35	2
0	20795	35	2
0	20796	35	2
0	20797	35	2
0	20827	35.05	2
0	20828	35.05	2
0	20829	35.05	2
0	20830	35.05	2
0	20852	35.1	2
0	20853	35.1	2
0	20854	35.1	2
0	20855	35.1	2
0	20856	35.1	2
0	20857	35.1	2
0	20858	35.1	2
0	20859	35.1	2
0	20876	35.15	2
0	20877	35.15	2
0	20878	35.15	2
0	20879	35.15	2
0	20888	35.2	2
0	20889	35.2	2
0	20890	35.2	2
0	20891	35.2	2
0	20892	35.2	2
0	20893	35.2	2
0	20894	35.2	2
0	20895	35.2	2
0	20915	35.25	2
0	20916	35.25	2
0	20917	35.25	2
0	20918	35.25	2
0	20927	35.3	2
0	20928	35.3	2
0	20929	35.3	2
0	20930	35.3	2
0	20931	35.3	2
0	20932	35.3	2
0	20933	35.3	2
0	20934	35.3	2
0	20964	35.35	2
0	20965	35.35	2
0	20966	35.35	2
0	20967	35.35	2
0	20976	35.4	2
0	20977	35.4	2
0	20978	35.4	2
0	20979	35.4	2
0	20980	35.4	2
0	20981	35.4	2
0	20982	35.4	2
0	20983	35.4	2
0	21010	35.45	2
0	21011	35.45	2
0	21012	35.45	2
0	21013	35.45	2
0	21025	35.5	2
0	21026	35.5	2
0	21027	35.5	2
0	21028	35.5	2
0	21029	35.5	2
0	21030	35.5	2
0	21031	35.5	2
0	21032	35.5	2
0	21049	35.55	2
0	21050	35.55	2
0	21051	35.55	2
0	21052	35.55	2
0	21071	35.6	2
0	21072	35.6	2
0	21073	35.6	2
0	21074	35.6	2
0	21075	35.6	2
0	21076	35.6	2
0	21077	35.6	2
0	21078	35.6	2
0	21095	35.65	2
0	21096	35.65	2
0	21097	35.65	2
0	21098	35.65	2
0	21107	35.7	2
0	21108	35.7	2
0	21109	35.7	2
0	21110	35.7	2
0	21111	35.7	2
0	21112	35.7	2
0	21113	35.7	2
0	21114	35.7	2
0	21131	35.75	2
0	21132	35.75	2
0	21133	35.75	2
0	21134	35.75	2
0	21143	35.8	2
0	21144	35.8	2
0	21145	35.8	2
0	21146	35.8	2
0	21147	35.8	2
0	21148	35.8	2
0	21149	35.8	2
0	21150	35.8	2
0	21167	35.85	2
0	21168	35.85	2
0	21169	35.85	2
0	21170	35.85	2
0	21195	35.9	2
0	21196	35.9	2
0	21197	35.9	2
0	21198	35.9	2
0	21199	35.9	2
0	21200	35.9	2
0	21201	35.9	2
0	21202	35.9	2
0	21219	35.95	2
0	21220	35.95	2
0	21221	35.95	2
0	21222	35.95	2
0	21244	36	2
0	21245	36	2
0	21246	36	2
0	21247	36	2
0	21248	36	2
0	21249	36	2
0	21250	36	2
0	21251	36	2
0	21271	36.05	2
0	21272	36.05	2
0	21273	36.05	2
0	21274	36.05	2
0	21283	36.1	2
0	21284	36.1	2
0	21285	36.1	2
0	21286	36.1	2
0	21287	36.1	2
0	21288	36.1	2
0	21289	36.1	2
0	21290	36.1	2
0	21320	36.15	2
0	21321	36.15	2
0	21322	36.15	2
0	21323	36.15	2
0	21332	36.2	2
0	21333	36.2	2
0	21334	36.2	2
0	21335	36.2	2
0	21336	36.2	2
0	21337	36.2	2
0	21338	36.2	2
0	21339	36.2	2
0	21356	36.25	2
0	21357	36.25	2
0	21358	36.25	2
0	21359	36.25	2
0	21368	36.3	2
0	21369	36.3	2
0	21370	36.3	2
0	21371	36.3	2
0	21372	36.3	2
0	21373	36.3	2
0	21374	36.3	2
0	21375	36.3	2
0	21392	36.35	2
0	21393	36.35	2
0	21394	36.35	2
0	21395	36.35	2
0	21404	36.4	2
0	21405	36.4	2
0	21406	36.4	2
0	21407	36.4	2
0	21408	36.4	2
0	21409	36.4	2
0	21410	36.4	2
0	21411	36.4	2
0	21428	36.45	2
0	21429	36.45	2
0	21430	36.45	2
0	21431	36.45	2
0	21440	36.5	2
0	21441	36.5	2
0	21442	36.5	2
0	21443	36.5	2
0	21444	36.5	2
0	21445	36.5	2
0	21446	36.5	2
0	21447	36.5	2
0	21477	36.55	2
0	21478	36.55	2
0	21479	36.55	2
0	21480	36.55	2
0	21489	36.6	2
0	21490	36.6	2
0	21491	36.6	2
0	21492	36.6	2
0	21493	36.6	2
0	21494	36.6	2
0	21495	36.6	2
0	21496	36.6	2
0	21513	36.65	2
0	21514	36.65	2
0	21515	36.65	2
0	21516	36.65	2
0	21541	36.7	2
0	21542	36.7	2
0	21543	36.7	2
0	21544	36.7	2
0	21545	36.7	2
0	21546	36.7	2
0	21547	36.7	2
0	21548	36.7	2
0	21565	36.75	2
0	21566	36.75	2
0	21567	36.75	2
0	21568	36.75	2
0	21577	36.8	2
0	21578	36.8	2
0	21579	36.8	2
0	21580	36.8	2
0	21581	36.8	2
0	21582	36.8	2
0	21583	36.8	2
0	21584	36.8	2
0	21604	36.85	2
0	21605	36.85	2
0	21606	36.85	2
0	21607	36.85	2
0	21616	36.9	2
0	21617	36.9	2
0	21618	36.9	2
0	21619	36.9	2
0	21620	36.9	2
0	21621	36.9	2
0	21622	36.9	2
0	21623	36.9	2
0	21653	36.95	2
0	21654	36.95	2
0	21655	36.95	2
0	21656	36.95	2
0	21665	37	2
0	21666	37	2
0	21667	37	2
0	21668	37	2
0	21669	37	2
0	21670	37	2
0	21671	37	2
0	21672	37	2
0	21689	37.05	2
0	21690	37.05	2
0	21691	37.05	2
0	21692	37.05	2
0	21714	37.1	2
0	21715	37.1	2
0	21716	37.1	2
0	21717	37.1	2
0	21718	37.1	2
0	21719	37.1	2
0	21720	37.1	2
0	21721	37.1	2
0	21738	37.15	2
0	21739	37.15	2
0	21740	37.15	2
0	21741	37.15	2
0	21750	37.2	2
0	21751	37.2	2
0	21752	37.2	2
0	21753	37.2	2
0	21754	37.2	2
0	21755	37.2	2
0	21756	37.2	2
0	21757	37.2	2
0	21774	37.25	2
0	21775	37.25	2
0	21776	37.25	2
0	21777	37.25	2
0	21786	37.3	2
0	21787	37.3	2
0	21788	37.3	2
0	21789	37.3	2
0	21790	37.3	2
0	21791	37.3	2
0	21792	37.3	2
0	21793	37.3	2
0	21810	37.35	2
0	21811	37.35	2
0	21812	37.35	2
0	21813	37.35	2
0	21822	37.4	2
0	21823	37.4	2
0	21824	37.4	2
0	21825	37.4	2
0	21826	37.4	2
0	21827	37.4	2
0	21828	37.4	2
0	21829	37.4	2
0	21846	37.45	2
0	21847	37.45	2
0	21848	37.45	2
0	21849	37.45	2
0	21893	37.5	2
0	21894	37.5	2
0	21895	37.5	2
0	21896	37.5	2
0	21897	37.5	2
0	21898	37.5	2
0	21899	37.5	2
0	21900	37.5	2
0	21917	37.55	2
0	21918	37.55	2
0	21919	37.55	2
0	21920	37.55	2
0	21929	37.6	2
0	21930	37.6	2
0	21931	37.6	2
0	21932	37.6	2
0	21933	37.6	2
0	21934	37.6	2
0	21935	37.6	2
0	21936	37.6	2
0	21966	37.65	2
0	21967	37.65	2
0	21968	37.65	2
0	21969	37.65	2
0	21978	37.7	2
0	21979	37.7	2
0	21980	37.7	2
0	21981	37.7	2
0	21982	37.7	2
0	21983	37.7	2
0	21984	37.7	2
0	21985	37.7	2
0	22002	37.75	2
0	22003	37.75	2
0	22004	37.75	2
0	22005	37.75	2
0	22014	37.8	2
0	22015	37.8	2
0	22016	37.8	2
0	22017	37.8	2
0	22018	37.8	2
0	22019	37.8	2
0	22020	37.8	2
0	22021	37.8	2
0	22038	37.85	2
0	22039	37.85	2
0	22040	37.85	2
0	22041	37.85	2
0	22050	37.9	2
0	22051	37.9	2
0	22052	37.9	2
0	22053	37.9	2
0	22054	37.9	2
0	22055	37.9	2
0	22056	37.9	2
0	22057	37.9	2
0	22074	37.95	2
0	22075	37.95	2
0	22076	37.95	2
0	22077	37.95	2
0	22086	38	2
0	22087	38	2
0	22088	38	2
0	22089	38	2
0	22090	38	2
0	22091	38	2
0	22092	38	2
0	22093	38	2
0	22113	38.05	2
0	22114	38.05	2
0	22115	38.05	2
0	22116	38.05	2
0	22125	38.1	2
0	22126	38.1	2
0	22127	38.1	2
0	22128	38.1	2
0	22129	38.1	2
0	22130	38.1	2
0	22131	38.1	2
0	22132	38.1	2
0	22162	38.15	2
0	22163	38.15	2
0	22164	38.15	2
0	22165	38.15	2
0	22174	38.2	2
0	22175	38.2	2
0	22176	38.2	2
0	22177	38.2	2
0	22178	38.2	2
0	22179	38.2	2
0	22180	38.2	2
0	22181	38.2	2
0	22198	38.25	2
0	22199	38.25	2
0	22200	38.25	2
0	22201	38.25	2
0	22236	38.3	2
0	22237	38.3	2
0	22238	38.3	2
0	22239	38.3	2
0	22240	38.3	2
0	22241	38.3	2
0	22242	38.3	2
0	22243	38.3	2
0	22260	38.35	2
0	22261	38.35	2
0	22262	38.35	2
0	22263	38.35	2
0	22272	38.4	2
0	22273	38.4	2
0	22274	38.4	2
0	22275	38.4	2
0	22276	38.4	2
0	22277	38.4	2
0	22278	38.4	2
0	22279	38.4	2
0	22299	38.45	2
0	22300	38.45	2
0	22301	38.45	2
0	22302	38.45	2
0	22311	38.5	2
0	22312	38.5	2
0	22313	38.5	2
0	22314	38.5	2
0	22315	38.5	2
0	22316	38.5	2
0	22317	38.5	2
0	22318	38.5	2
0	22335	38.55	2
0	22336	38.55	2
0	22337	38.55	2
0	22338	38.55	2
0	22347	38.6	2
0	22348	38.6	2
0	22349	38.6	2
0	22350	38.6	2
0	22351	38.6	2
0	22352	38.6	2
0	22353	38.6	2
0	22354	38.6	2
0	22371	38.65	2
0	22372	38.65	2
0	22373	38.65	2
0	22374	38.65	2
0	22386	38.7	2
0	22387	38.7	2
0	22388	38.7	2
0	22389	38.7	2
0	22390	38.7	2
0	22391	38.7	2
0	22392	38.7	2
0	22393	38.7	2
0	22410	38.75	2
0	22411	38.75	2
0	22412	38.75	2
0	22413	38.75	2
0	22422	38.8	2
0	22423	38.8	2
0	22424	38.8	2
0	22425	38.8	2
0	22426	38.8	2
0	22427	38.8	2
0	22428	38.8	2
0	22429	38.8	2
0	22446	38.85	2
0	22447	38.85	2
0	22448	38.85	2
0	22449	38.85	2
0	22458	38.9	2
0	22459	38.9	2
0	22460	38.9	2
0	22461	38.9	2
0	22462	38.9	2
0	22463	38.9	2
0	22464	38.9	2
0	22465	38.9	2
0	22482	38.95	2
0	22483	38.95	2
0	22484	38.95	2
0	22485	38.95	2
0	22494	39	2
0	22495	39	2
0	22496	39	2
0	22497	39	2
0	22498	39	2
0	22499	39	2
0	22500	39	2
0	22501	39	2
0	22518	39.05	2
0	22519	39.05	2
0	22520	39.05	2
0	22521	39.05	2
0	22543	39.1	2
0	22544	39.1	2
0	22545	39.1	2
0	22546	39.1	2
0	22547	39.1	2
0	22548	39.1	2
0	22549	39.1	2
0	22550	39.1	2
0	22567	39.15	2
0	22568	39.15	2
0	22569	39.15	2
0	22570	39.15	2
0	22579	39.2	2
0	22580	39.2	2
0	22581	39.2	2
0	22582	39.2	2
0	22583	39.2	2
0	22584	39.2	2
0	22585	39.2	2
0	22586	39.2	2
0	22629	39.25	2
0	22630	39.25	2
0	22631	39.25	2
0	22632	39.25	2
0	22641	39.3	2
0	22642	39.3	2
0	22643	39.3	2
0	22644	39.3	2
0	22645	39.3	2
0	22646	39.3	2
0	22647	39.3	2
0	22648	39.3	2
0	22665	39.35	2
0	22666	39.35	2
0	22667	39.35	2
0	22668	39.35	2
0	22680	39.4	2
0	22681	39.4	2
0	22682	39.4	2
0	22683	39.4	2
0	22684	39.4	2
0	22685	39.4	2
0	22686	39.4	2
0	22687	39.4	2
0	22704	39.45	2
0	22705	39.45	2
0	22706	39.45	2
0	22707	39.45	2
0	22716	39.5	2
0	22717	39.5	2
0	22718	39.5	2
0	22719	39.5	2
0	22720	39.5	2
0	22721	39.5	2
0	22722	39.5	2
0	22723	39.5	2
0	22740	39.55	2
0	22741	39.55	2
0	22742	39.55	2
0	22743	39.55	2
0	22752	39.6	2
0	22753	39.6	2
0	22754	39.6	2
0	22755	39.6	2
0	22756	39.6	2
0	22757	39.6	2
0	22758	39.6	2
0	22759	39.6	2
0	22789	39.65	2
0	22790	39.65	2
0	22791	39.65	2
0	22792	39.65	2
0	22801	39.7	2
0	22802	39.7	2
0	22803	39.7	2
0	22804	39.7	2
0	22805	39.7	2
0	22806	39.7	2
0	22807	39.7	2
0	22808	39.7	2
0	22825	39.75	2
0	22826	39.75	2
0	22827	39.75	2
0	22828	39.75	2
0	22850	39.8	2
0	22851	39.8	2
0	22852	39.8	2
0	22853	39.8	2
0	22854	39.8	2
0	22855	39.8	2
0	22856	39.8	2
0	22857	39.8	2
0	22874	39.85	2
0	22875	39.85	2
0	22876	39.85	2
0	22877	39.85	2
0	22906	39.9	2
0	22907	39.9	2
0	22908	39.9	2
0	22909	39.9	2
0	22910	39.9	2
0	22911	39.9	2
0	22912	39.9	2
0	22913	39.9	2
0	22930	39.95	2
0	22931	39.95	2
0	22932	39.95	2
0	22933	39.95	2
0	22942	40	2
0	22943	40	2
0	22944	40	2
0	22945	40	2
0	22946	40	2
0	22947	40	2
0	22948	40	2
0	22949	40	2
0	22979	40.05	2
0	22980	40.05	2
0	22981	40.05	2
0	22982	40.05	2
0	22991	40.1	2
0	22992	40.1	2
0	22993	40.1	2
0	22994	40.1	2
0	22995	40.1	2
0	22996	40.1	2
0	22997	40.1	2
0	22998	40.1	2
0	23015	40.15	2
0	23016	40.15	2
0	23017	40.15	2
0	23018	40.15	2
0	23037	40.2	2
0	23038	40.2	2
0	23039	40.2	2
0	23040	40.2	2
0	23041	40.2	2
0	23042	40.2	2
0	23043	40.2	2
0	23044	40.2	2
0	23061	40.25	2
0	23062	40.25	2
0	23063	40.25	2
0	23064	40.25	2
0	23073	40.3	2
0	23074	40.3	2
0	23075	40.3	2
0	23076	40.3	2
0	23077	40.3	2
0	23078	40.3	2
0	23079	40.3	2
0	23080	40.3	2
0	23110	40.35	2
0	23111	40.35	2
0	23112	40.35	2
0	23113	40.35	2
0	23122	40.4	2
0	23123	40.4	2
0	23124	40.4	2
0	23125	40.4	2
0	23126	40.4	2
0	23127	40.4	2
0	23128	40.4	2
0	23129	40.4	2
0	23159	40.45	2
0	23160	40.45	2
0	23161	40.45	2
0	23162	40.45	2
0	23171	40.5	2
0	23172	40.5	2
0	23173	40.5	2
0	23174	40.5	2
0	23175	40.5	2
0	23176	40.5	2
0	23177	40.5	2
0	23178	40.5	2
0	23195	40.55	2
0	23196	40.55	2
0	23197	40.55	2
0	23198	40.55	2
0	23220	40.6	2
0	23221	40.6	2
0	23222	40.6	2
0	23223	40.6	2
0	23224	40.6	2
0	23225	40.6	2
0	23226	40.6	2
0	23227	40.6	2
0	23244	40.65	2
0	23245	40.65	2
0	23246	40.65	2
0	23247	40.65	2
0	23256	40.7	2
0	23257	40.7	2
0	23258	40.7	2
0	23259	40.7	2
0	23260	40.7	2
0	23261	40.7	2
0	23262	40.7	2
0	23263	40.7	2
0	23283	40.75	2
0	23284	40.75	2
0	23285	40.75	2
0	23286	40.75	2
0	23295	40.8	2
0	23296	40.8	2
0	23297	40.8	2
0	23298	40.8	2
0	23299	40.8	2
0	23300	40.8	2
0	23301	40.8	2
0	23302	40.8	2
0	23332	40.85	2
0	23333	40.85	2
0	23334	40.85	2
0	23335	40.85	2
0	23344	40.9	2
0	23345	40.9	2
0	23346	40.9	2
0	23347	40.9	2
0	23348	40.9	2
0	23349	40.9	2
0	23350	40.9	2
0	23351	40.9	2
0	23368	40.95	2
0	23369	40.95	2
0	23370	40.95	2
0	23371	40.95	2
0	23393	41	2
0	23394	41	2
0	23395	41	2
0	23396	41	2
0	23397	41	2
0	23398	41	2
0	23399	41	2
0	23400	41	2
0	23417	41.05	2
0	23418	41.05	2
0	23419	41.05	2
0	23420	41.05	2
0	23429	41.1	2
0	23430	41.1	2
0	23431	41.1	2
0	23432	41.1	2
0	23433	41.1	2
0	23434	41.1	2
0	23435	41.1	2
0	23436	41.1	2
0	23453	41.15	2
0	23454	41.15	2
0	23455	41.15	2
0	23456	41.15	2
0	23465	41.2	2
0	23466	41.2	2
0	23467	41.2	2
0	23468	41.2	2
0	23469	41.2	2
0	23470	41.2	2
0	23471	41.2	2
0	23472	41.2	2
0	23489	41.25	2
0	23490	41.25	2
0	23491	41.25	2
0	23492	41.25	2
0	23501	41.3	2
0	23502	41.3	2
0	23503	41.3	2
0	23504	41.3	2
0	23505	41.3	2
0	23506	41.3	2
0	23507	41.3	2
0	23508	41.3	2
0	23525	41.35	2
0	23526	41.35	2
0	23527	41.35	2
0	23528	41.35	2
0	23540	41.4	2
0	23541	41.4	2
0	23542	41.4	2
0	23543	41.4	2
0	23544	41.4	2
0	23545	41.4	2
0	23546	41.4	2
0	23547	41.4	2
0	23564	41.45	2
0	23565	41.45	2
0	23566	41.45	2
0	23567	41.45	2
0	23589	41.5	2
0	23590	41.5	2
0	23591	41.5	2
0	23592	41.5	2
0	23593	41.5	2
0	23594	41.5	2
0	23595	41.5	2
0	23596	41.5	2
0	23613	41.55	2
0	23614	41.55	2
0	23615	41.55	2
0	23616	41.55	2
0	23625	41.6	2
0	23626	41.6	2
0	23627	41.6	2
0	23628	41.6	2
0	23629	41.6	2
0	23630	41.6	2
0	23631	41.6	2
0	23632	41.6	2
0	23652	41.65	2
0	23653	41.65	2
0	23654	41.65	2
0	23655	41.65	2
0	23664	41.7	2
0	23665	41.7	2
0	23666	41.7	2
0	23667	41.7	2
0	23668	41.7	2
0	23669	41.7	2
0	23670	41.7	2
0	23671	41.7	2
0	23688	41.75	2
0	23689	41.75	2
0	23690	41.75	2
0	23691	41.75	2
0	23700	41.8	2
0	23701	41.8	2
0	23702	41.8	2
0	23703	41.8	2
0	23704	41.8	2
0	23705	41.8	2
0	23706	41.8	2
0	23707	41.8	2
0	23724	41.85	2
0	23725	41.85	2
0	23726	41.85	2
0	23727	41.85	2
0	23736	41.9	2
0	23737	41.9	2
0	23738	41.9	2
0	23739	41.9	2
0	23740	41.9	2
0	23741	41.9	2
0	23742	41.9	2
0	23743	41.9	2
0	23773	41.95	2
0	23774	41.95	2
0	23775	41.95	2
0	23776	41.95	2
0	23785	42	2
0	23786	42	2
0	23787	42	2
0	23788	42	2
0	23789	42	2
0	23790	42	2
0	23791	42	2
0	23792	42	2
0	23809	42.05	2
0	23810	42.05	2
0	23811	42.05	2
0	23812	42.05	2
0	23834	42.1	2
0	23835	42.1	2
0	23836	42.1	2
0	23837	42.1	2
0	23838	42.1	2
0	23839	42.1	2
0	23840	42.1	2
0	23841	42.1	2
0	23858	42.15	2
0	23859	42.15	2
0	23860	42.15	2
0	23861	42.15	2
0	23883	42.2	2
0	23884	42.2	2
0	23885	42.2	2
0	23886	42.2	2
0	23887	42.2	2
0	23888	42.2	2
0	23889	42.2	2
0	23890	42.2	2
0	23907	42.25	2
0	23908	42.25	2
0	23909	42.25	2
0	23910	42.25	2
0	23919	42.3	2
0	23920	42.3	2
0	23921	42.3	2
0	23922	42.3	2
0	23923	42.3	2
0	23924	42.3	2
0	23925	42.3	2
0	23926	42.3	2
0	23946	42.35	2
0	23947	42.35	2
0	23948	42.35	2
0	23949	42.35	2
0	23958	42.4	2
0	23959	42.4	2
0	23960	42.4	2
0	23961	42.4	2
0	23962	42.4	2
0	23963	42.4	2
0	23964	42.4	2
0	23965	42.4	2
0	23982	42.45	2
0	23983	42.45	2
0	23984	42.45	2
0	23985	42.45	2
0	23997	42.5	2
0	23998	42.5	2
0	23999	42.5	2
0	24000	42.5	2
0	24001	42.5	2
0	24002	42.5	2
0	24003	42.5	2
0	24004	42.5	2
0	24021	42.55	2
0	24022	42.55	2
0	24023	42.55	2
0	24024	42.55	2
0	24046	42.6	2
0	24047	42.6	2
0	24048	42.6	2
0	24049	42.6	2
0	24050	42.6	2
0	24051	42.6	2
0	24052	42.6	2
0	24053	42.6	2
0	24070	42.65	2
0	24071	42.65	2
0	24072	42.65	2
0	24073	42.65	2
0	24082	42.7	2
0	24083	42.7	2
0	24084	42.7	2
0	24085	42.7	2
0	24086	42.7	2
0	24087	42.7	2
0	24088	42.7	2
0	24089	42.7	2
0	24119	42.75	2
0	24120	42.75	2
0	24121	42.75	2
0	24122	42.75	2
0	24131	42.8	2
0	24132	42.8	2
0	24133	42.8	2
0	24134	42.8	2
0	24135	42.8	2
0	24136	42.8	2
0	24137	42.8	2
0	24138	42.8	2
0	24155	42.85	2
0	24156	42.85	2
0	24157	42.85	2
0	24158	42.85	2
0	24167	42.9	2
0	24168	42.9	2
0	24169	42.9	2
0	24170	42.9	2
0	24171	42.9	2
0	24172	42.9	2
0	24173	42.9	2
0	24174	42.9	2
0	24191	42.95	2
0	24192	42.95	2
0	24193	42.95	2
0	24194	42.95	2
0	24203	43	2
0	24204	43	2
0	24205	43	2
0	24206	43	2
0	24207	43	2
0	24208	43	2
0	24209	43	2
0	24210	43	2
0	24227	43.05	2
0	24228	43.05	2
0	24229	43.05	2
0	24230	43.05	2
0	24249	43.1	2
0	24250	43.1	2
0	24251	43.1	2
0	24252	43.1	2
0	24253	43.1	2
0	24254	43.1	2
0	24255	43.1	2
0	24256	43.1	2
0	24286	43.15	2
0	24287	43.15	2
0	24288	43.15	2
0	24289	43.15	2
0	24298	43.2	2
0	24299	43.2	2
0	24300	43.2	2
0	24301	43.2	2
0	24302	43.2	2
0	24303	43.2	2
0	24304	43.2	2
0	24305	43.2	2
0	24325	43.25	2
0	24326	43.25	2
0	24327	43.25	2
0	24328	43.25	2
0	24347	43.3	2
0	24348	43.3	2
0	24349	43.3	2
0	24350	43.3	2
0	24351	43.3	2
0	24352	43.3	2
0	24353	43.3	2
0	24354	43.3	2
0	24371	43.35	2
0	24372	43.35	2
0	24373	43.35	2
0	24374	43.35	2
0	24383	43.4	2
0	24384	43.4	2
0	24385	43.4	2
0	24386	43.4	2
0	24387	43.4	2
0	24388	43.4	2
0	24389	43.4	2
0	24390	43.4	2
0	24407	43.45	2
0	24408	43.45	2
0	24409	43.45	2
0	24410	43.45	2
0	24419	43.5	2
0	24420	43.5	2
0	24421	43.5	2
0	24422	43.5	2
0	24423	43.5	2
0	24424	43.5	2
0	24425	43.5	2
0	24426	43.5	2
0	24443	43.55	2
0	24444	43.55	2
0	24445	43.55	2
0	24446	43.55	2
0	24455	43.6	2
0	24456	43.6	2
0	24457	43.6	2
0	24458	43.6	2
0	24459	43.6	2
0	24460	43.6	2
0	24461	43.6	2
0	24462	43.6	2
0	24479	43.65	2
0	24480	43.65	2
0	24481	43.65	2
0	24482	43.65	2
0	24507	43.7	2
0	24508	43.7	2
0	24509	43.7	2
0	24510	43.7	2
0	24511	43.7	2
0	24512	43.7	2
0	24513	43.7	2
0	24514	43.7	2
0	24531	43.75	2
0	24532	43.75	2
0	24533	43.75	2
0	24534	43.75	2
0	24546	43.8	2
0	24547	43.8	2
0	24548	43.8	2
0	24549	43.8	2
0	24550	43.8	2
0	24551	43.8	2
0	24552	43.8	2
0	24553	43.8	2
0	24573	43.85	2
0	24574	43.85	2
0	24575	43.85	2
0	24576	43.85	2
0	24585	43.9	2
0	24586	43.9	2
0	24587	43.9	2
0	24588	43.9	2
0	24589	43.9	2
0	24590	43.9	2
0	24591	43.9	2
0	24592	43.9	2
0	24622	43.95	2
0	24623	43.95	2
0	24624	43.95	2
0	24625	43.95	2
0	24634	44	2
0	24635	44	2
0	24636	44	2
0	24637	44	2
0	24638	44	2
0	24639	44	2
0	24640	44	2
0	24641	44	2
0	24658	44.05	2
0	24659	44.05	2
0	24660	44.05	2
0	24661	44.05	2
[...]
2	9045	13.887710839471	29469
2	9079	13.901550839471	29610
2	9089	13.915390839471	29751
2	9100	13.943070839471	29892
2	9122	13.956910839471	30033
2	9129	13.970750839471	30174
2	9166	14.026110839471	30315
2	9176	14.039950839471	30456
2	9741	14.970270839471	30597
2	9751	14.984110839471	30738
2	9788	15.011790839471	30879
2	9798	15.025630839471	31020
2	9822	15.067150839471	31161
2	9855	15.108670839471	31302
2	9865	15.122510839471	31443
2	9886	15.164030839471	31584
2	9896	15.177870839471	31725
2	9906	15.191710839471	31866
2	9939	15.205550839471	32007
2	9960	15.219390839471	32148
2	9967	15.233230839471	32289
2	9977	15.247070839471	32430
2	9999	15.260910839471	32571
2	10007	15.288590839471	32712
2	10042	15.302430839471	32853
2	10071	15.330110839471	32994
2	10096	15.357790839471	33135
2	10117	15.371630839471	33276
2	10127	15.385470839471	33417
2	10162	15.413150839471	33558
2	10172	15.426990839471	33699
2	10182	15.440830839471	33840
2	10208	15.454670839471	33981
2	10226	15.468510839471	34122
2	10233	15.482350839471	34263
2	10283	15.551550839471	34404
2	10295	15.593070839471	34545
2	10329	15.606910839471	34686
2	10339	15.620750839471	34827
2	10349	15.634590839471	34968
2	10372	15.662270839471	35109
2	10383	15.689950839471	35250
2	10418	15.717630839471	35391
2	10425	15.731470839471	35532
2	10450	15.759150839471	35673
2	10469	15.786830839471	35814
2	10501	15.814510839471	35955
2	10511	15.828350839471	36096
2	10521	15.842190839471	36237
2	10544	15.869870839471	36378
2	10554	15.883710839471	36519
2	10589	15.911390839471	36660
2	10596	15.925230839471	36801
2	10606	15.939070839471	36942
2	10625	15.952910839471	37083
2	10632	15.966750839471	37224
2	10643	15.994430839471	37365
2	10677	16.008270839471	37506
2	10689	16.049790839471	37647
2	11067	16.742590839471	37788
2	11090	16.770270839471	37929
2	11098	16.797950839471	38070
2	11129	16.811790839471	38211
2	11140	16.839470839471	38352
2	11162	16.853310839471	38493
2	11173	16.880990839471	38634
2	11183	16.894830839471	38775
2	11217	16.908670839471	38916
2	11228	16.936350839471	39057
2	11250	16.950190839471	39198
2	11257	16.964030839471	39339
2	11268	16.991710839471	39480
2	11302	17.005550839471	39621
2	11313	17.033230839471	39762
2	11345	17.060910839471	39903
2	11353	17.074750839471	40044
2	11363	17.088590839471	40185
2	11399	17.102430839471	40326
2	11407	17.116270839471	40467
2	12096	18.528750839471	40608
2	12147	18.611790839471	40749
2	12157	18.625630839471	40890
2	12167	18.639470839471	41031
2	12194	18.680990839471	41172
2	12228	18.708670839471	41313
2	12238	18.722510839471	41454
2	12258	18.750190839471	41595
2	12269	18.777870839471	41736
2	12276	18.791710839471	41877
2	12312	18.805550839471	42018
2	12330	18.819390839471	42159
2	12340	18.833230839471	42300
2	12363	18.860910839471	42441
2	12373	18.874750839471	42582
2	12383	18.888590839471	42723
2	12424	18.916270839471	42864
2	12431	18.930110839471	43005
2	12441	18.943950839471	43146
2	12464	18.971630839471	43287
2	12472	18.999310839471	43428
2	12506	19.013150839471	43569
2	12533	19.068510839471	43710
2	12540	19.082350839471	43851
2	12547	19.096190839471	43992
2	12595	19.123870839471	44133
2	12602	19.137710839471	44274
2	12624	19.151550839471	44415
2	12634	19.165390839471	44556
2	12641	19.179230839471	44697
2	12648	19.193070839471	44838
2	12684	19.206910839471	44979
2	12692	19.220750839471	45120
2	12702	19.234590839471	45261
2	12709	19.248430839471	45402
2	12737	19.262270839471	45543
2	12751	19.276110839471	45684
2	12761	19.289950839471	45825
2	12797	19.331470839471	45966
2	12804	19.345310839471	46107
2	12826	19.359150839471	46248
2	12943	19.41577129477	46389
2	12953	19.42961129477	46530
2	12973	19.45729129477	46671
2	12984	19.48497129477	46812
2	12994	19.49881129477	46953
2	13028	19.51265129477	47094
2	13038	19.52649129477	47235
2	13062	19.56801129477	47376
2	13069	19.58185129477	47517
2	13104	19.60953129477	47658
2	13111	19.62337129477	47799
2	13121	19.63721129477	47940
2	13157	19.66489129477	48081
2	13167	19.67873129477	48222
2	13174	19.69257129477	48363
2	13205	19.70641129477	48504
2	13217	19.74793129477	48645
2	13239	19.76177129477	48786
2	13249	19.77561129477	48927
2	13283	19.80329129477	49068
2	13294	19.81713129477	49209
2	13301	19.83097129477	49350
2	13324	19.85865129477	49491
2	13335	19.88633129477	49632
2	14078	21.584110839471	49773
2	14088	21.597950839471	49914
2	14122	21.611790839471	50055
2	14129	21.625630839471	50196
2	14139	21.639470839471	50337
2	14185	21.680990839471	50478
2	14217	21.708670839471	50619
2	14227	21.722510839471	50760
2	14237	21.736350839471	50901
2	14256	21.750190839471	51042
2	14266	21.764030839471	51183
2	15126	23.778750839471	51324
2	15169	23.820270839471	51465
2	15179	23.834110839471	51606
2	15189	23.847950839471	51747
2	15208	23.861790839471	51888
2	15218	23.875630839471	52029
2	15561	24.538430839471	52170
2	15583	24.552270839471	52311
2	15593	24.566110839471	52452
2	15604	24.593790839471	52593
2	15638	24.607630839471	52734
2	15645	24.621470839471	52875
2	15655	24.635310839471	53016
2	15896	25.088430839471	53157
2	15930	25.102270839471	53298
2	15940	25.116110839471	53439
2	15947	25.129950839471	53580
2	16598	26.678750839471	53721
2	17004	27.528750839471	53862
2	17029	27.556430839471	54003
2	17050	27.570270839471	54144
2	17060	27.584110839471	54285
2	17498	28.578750839471	54426
2	17857	29.442590839471	54567
2	18385	30.728750839471	54708
2	19069	32.028750839471	54849
2	19076	32.042590839471	54990
2	19098	32.056430839471	55131
2	19105	32.070270839471	55272
2	19115	32.084110839471	55413
2	19125	32.097950839471	55554
2	19164	32.111790839471	55695
2	19180	32.139470839471	55836
2	19202	32.153310839471	55977
2	19212	32.167150839471	56118
2	19219	32.180990839471	56259
2	19252	32.222510839471	56400
2	19276	32.264030839471	56541
2	19286	32.277870839471	56682
2	19318	32.305550839471	56823
2	19325	32.319390839471	56964
2	19332	32.333230839471	57105
2	19339	32.347070839471	57246
2	19367	32.360910839471	57387
2	19377	32.374750839471	57528
2	19412	32.402430839471	57669
2	19422	32.416270839471	57810
2	19432	32.430110839471	57951
2	19442	32.443950839471	58092
2	19464	32.457790839471	58233
2	19475	32.485470839471	58374
2	19590	32.578750839471	58515
2	19600	32.592590839471	58656
2	19634	32.606430839471	58797
2	19641	32.620270839471	58938
2	19652	32.647950839471	59079
2	19674	32.661790839471	59220
2	19684	32.675630839471	59361
2	19716	32.703310839471	59502
2	19725	32.744830839471	59643
2	19747	32.758670839471	59784
2	19755	32.786350839471	59925
2	19790	32.814030839471	60066
2	20585	34.678750839471	60207
2	20595	34.692590839471	60348
2	20626	34.706430839471	60489
2	20636	34.720270839471	60630
2	20646	34.734110839471	60771
2	20656	34.747950839471	60912
2	20675	34.761790839471	61053
2	20682	34.775630839471	61194
2	20692	34.789470839471	61335
2	20727	34.817150839471	61476
2	21886	37.488430839471	61617
2	24987	44.828750839471	61758
2	25012	44.856430839471	61899
2	25027	44.870270839471	62040
2	26629	48.592590839471	62181
2	26663	48.606430839471	62322
2	26673	48.620270839471	62463
2	26683	48.634110839471	62604
2	26920	49.128750839471	62745
2	31900	60.678750839471	62886
3	1056	1.138430839471	141
3	1079	1.166110839471	282
3	1089	1.179950839471	423
3	1099	1.193790839471	564
3	1130	1.207630839471	705
3	1142	1.249150839471	846
3	1161	1.262990839471	987
3	1171	1.276830839471	1128
3	1178	1.290670839471	1269
3	1212	1.304510839471	1410
3	1222	1.318350839471	1551
3	1243	1.359870839471	1692
3	1253	1.373710839471	1833
3	1288	1.401390839471	1974
3	1299	1.429070839471	2115
3	1306	1.442910839471	2256
3	1329	1.470590839471	2397
3	1365	1.512110839471	2538
3	1372	1.525950839471	2679
3	1393	1.567470839471	2820
3	1404	1.595150839471	2961
3	1438	1.608990839471	3102
3	1448	1.622830839471	3243
3	1458	1.636670839471	3384
3	1493	1.664350839471	3525
3	1500	1.678190839471	3666
3	1510	1.692030839471	3807
3	1545	1.719710839471	3948
3	1567	1.775070839471	4089
3	1577	1.788910839471	4230
3	1610	1.802750839471	4371
3	1622	1.844270839471	4512
3	1644	1.858110839471	4653
3	1652	1.885790839471	4794
3	1684	1.913470839471	4935
3	1692	1.941150839471	5076
3	1711	1.954990839471	5217
3	1722	1.982670839471	5358
3	1732	1.996510839471	5499
3	1764	2.024190839471	5640
3	1787	2.051870839471	5781
3	1797	2.065710839471	5922
3	1807	2.079550839471	6063
3	1845	2.148750839471	6204
3	1868	2.176430839471	6345
3	1875	2.190270839471	6486
3	1906	2.204110839471	6627
3	1917	2.231790839471	6768
3	1927	2.245630839471	6909
3	1946	2.259470839471	7050
3	1956	2.273310839471	7191
3	1992	2.314830839471	7332
3	2002	2.328670839471	7473
3	2025	2.356350839471	7614
3	2035	2.370190839471	7755
3	2045	2.384030839471	7896
3	2055	2.397870839471	8037
3	2087	2.425550839471	8178
3	2097	2.439390839471	8319
3	2120	2.467070839471	8460
3	2130	2.480910839471	8601
3	2140	2.494750839471	8742
3	2171	2.508590839471	8883
3	2307	2.54169129477	9024
3	2329	2.55553129477	9165
3	2339	2.56937129477	9306
3	2350	2.59705129477	9447
3	2381	2.61089129477	9588
3	2392	2.63857129477	9729
3	2416	2.65241129477	9870
3	2427	2.66625129477	10011
3	2437	2.68009129477	10152
3	2447	2.69393129477	10293
3	2488	2.70777129477	10434
3	2530	2.72161129477	10575
3	2546	2.74929129477	10716
3	2569	2.77697129477	10857
3	2629	2.86001129477	10998
3	2640	2.87385129477	11139
3	2677	2.92921129477	11280
3	2700	2.95689129477	11421
3	2710	2.97073129477	11562
3	2720	2.98457129477	11703
3	2730	2.99841129477	11844
3	2761	3.01225129477	11985
3	2772	3.03993129477	12126
3	2794	3.05377129477	12267
3	2804	3.06761129477	12408
3	2814	3.08145129477	12549
3	2849	3.10913129477	12690
3	2859	3.12297129477	12831
3	2869	3.13681129477	12972
3	2891	3.15065129477	13113
3	2901	3.16449129477	13254
3	2908	3.17833129477	13395
3	2918	3.19217129477	13536
3	2952	3.20601129477	13677
3	2962	3.21985129477	13818
3	3009	3.28905129477	13959
3	3044	3.31673129477	14100
3	3784	4.978750839471	14241
3	3791	4.992590839471	14382
3	3822	5.006430839471	14523
3	3833	5.034110839471	14664
3	3843	5.047950839471	14805
3	3879	5.075630839471	14946
3	3916	5.103310839471	15087
3	3934	5.130990839471	15228
3	3944	5.144830839471	15369
3	3966	5.158670839471	15510
3	3973	5.172510839471	15651
3	3983	5.186350839471	15792
3	4018	5.214030839471	15933
3	4028	5.227870839471	16074
3	4053	5.283230839471	16215
3	4850	7.128750839471	16356
3	4873	7.156430839471	16497
3	4916	7.211790839471	16638
3	4954	7.267150839471	16779
3	4961	7.280990839471	16920
3	4971	7.294830839471	17061
3	5005	7.308670839471	17202
3	5015	7.322510839471	17343
3	6873	11.128750839471	17484
3	6883	11.142590839471	17625
3	6907	11.156430839471	17766
3	6920	11.197950839471	17907
3	6954	11.211790839471	18048
3	6964	11.225630839471	18189
3	6987	11.253310839471	18330
3	6997	11.267150839471	18471
3	7007	11.280990839471	18612
3	7017	11.294830839471	18753
3	7050	11.308670839471	18894
3	7060	11.322510839471	19035
3	7070	11.336350839471	19176
3	7093	11.364030839471	19317
3	7103	11.377870839471	19458
3	7110	11.391710839471	19599
3	7145	11.419390839471	19740
3	7168	11.488590839471	19881
3	7206	11.502430839471	20022
3	7218	11.516270839471	20163
3	7225	11.530110839471	20304
3	7235	11.543950839471	20445
3	7259	11.557790839471	20586
3	7281	11.585470839471	20727
3	7288	11.599310839471	20868
3	7321	11.640830839471	21009
3	7342	11.654670839471	21150
3	7364	11.682350839471	21291
3	7374	11.696190839471	21432
3	7414	11.710030839471	21573
3	7425	11.723870839471	21714
3	7448	11.751550839471	21855
3	7459	11.779230839471	21996
3	7466	11.793070839471	22137
3	7497	11.806910839471	22278
3	7504	11.820750839471	22419
3	7514	11.834590839471	22560
3	7521	11.848430839471	22701
3	7543	11.862270839471	22842
3	7550	11.876110839471	22983
3	7557	11.889950839471	23124
3	7590	11.931470839471	23265
3	7600	11.945310839471	23406
3	7624	11.986830839471	23547
3	7660	12.028350839471	23688
3	7670	12.042190839471	23829
3	7694	12.056030839471	23970
3	7715	12.069870839471	24111
3	7725	12.083710839471	24252
3	7785	12.152910839471	24393
3	7792	12.166750839471	24534
3	7803	12.194430839471	24675
3	7839	12.208270839471	24816
3	7862	12.249790839471	24957
3	7888	12.277470839471	25098
3	7920	12.305150839471	25239
3	7931	12.332830839471	25380
3	7955	12.374350839471	25521
3	7965	12.388190839471	25662
3	7999	12.443550839471	25803
3	8021	12.457390839471	25944
3	8033	12.498910839471	26085
3	8561	13.292590839471	26226
3	8600	13.334110839471	26367
3	8624	13.375630839471	26508
3	8634	13.389470839471	26649
3	8678	13.417150839471	26790
3	8688	13.430990839471	26931
3	8698	13.444830839471	27072
3	8720	13.458670839471	27213
3	8730	13.472510839471	27354
3	8740	13.486350839471	27495
3	8776	13.527870839471	27636
3	8801	13.583230839471	27777
3	8836	13.610910839471	27918
3	8843	13.624750839471	28059
3	8867	13.666270839471	28200
3	8875	13.693950839471	28341
3	8925	13.749310839471	28482
3	8945	13.776990839471	28623
3	8955	13.790830839471	28764
3	8988	13.804670839471	28905
3	8998	13.818510839471	29046
3	9009	13.846190839471	29187
3	9034	13.860030839471	29328
3	9045	13.887710839471	29469
3	9079	13.901550839471	29610
3	9089	13.915390839471	29751
3	9100	13.943070839471	29892
3	9122	13.956910839471	30033
3	9129	13.970750839471	30174
3	9166	14.026110839471	30315
3	9176	14.039950839471	30456
3	9741	14.970270839471	30597
3	9751	14.984110839471	30738
3	9788	15.011790839471	30879
3	9798	15.025630839471	31020
3	9822	15.067150839471	31161
3	9855	15.108670839471	31302
3	9865	15.122510839471	31443
3	9886	15.164030839471	31584
3	9896	15.177870839471	31725
3	9906	15.191710839471	31866
3	9939	15.205550839471	32007
3	9960	15.219390839471	32148
3	9967	15.233230839471	32289
3	9977	15.247070839471	32430
3	9999	15.260910839471	32571
3	10007	15.288590839471	32712
3	10042	15.302430839471	32853
3	10071	15.330110839471	32994
3	10096	15.357790839471	33135
3	10117	15.371630839471	33276
3	10127	15.385470839471	33417
3	10162	15.413150839471	33558
3	10172	15.426990839471	33699
3	10182	15.440830839471	33840
3	10208	15.454670839471	33981
3	10226	15.468510839471	34122
3	10233	15.482350839471	34263
3	10283	15.551550839471	34404
3	10295	15.593070839471	34545
3	10329	15.606910839471	34686
3	10339	15.620750839471	34827
3	10349	15.634590839471	34968
3	10372	15.662270839471	35109
3	10383	15.689950839471	35250
3	10418	15.717630839471	35391
3	10425	15.731470839471	35532
3	10450	15.759150839471	35673
3	10469	15.786830839471	35814
3	10501	15.814510839471	35955
3	10511	15.828350839471	36096
3	10521	15.842190839471	36237
3	10544	15.869870839471	36378
3	10554	15.883710839471	36519
3	10589	15.911390839471	36660
3	10596	15.925230839471	36801
3	10606	15.939070839471	36942
3	10625	15.952910839471	37083
3	10632	15.966750839471	37224
3	10643	15.994430839471	37365
3	10677	16.008270839471	37506
3	10689	16.049790839471	37647
3	11067	16.742590839471	37788
3	11090	16.770270839471	37929
3	11098	16.797950839471	38070
3	11129	16.811790839471	38211
3	11140	16.839470839471	38352
3	11162	16.853310839471	38493
3	11173	16.880990839471	38634
3	11183	16.894830839471	38775
3	11217	16.908670839471	38916
3	11228	16.936350839471	39057
3	11250	16.950190839471	39198
3	11257	16.964030839471	39339
3	11268	16.991710839471	39480
3	11302	17.005550839471	39621
3	11313	17.033230839471	39762
3	11345	17.060910839471	39903
3	11353	17.074750839471	40044
3	11363	17.088590839471	40185
3	11399	17.102430839471	40326
3	11407	17.116270839471	40467
3	12096	18.528750839471	40608
3	12147	18.611790839471	40749
3	12157	18.625630839471	40890
3	12167	18.639470839471	41031
3	12194	18.680990839471	41172
3	12228	18.708670839471	41313
3	12238	18.722510839471	41454
3	12258	18.750190839471	41595
3	12269	18.777870839471	41736
3	12276	18.791710839471	41877
3	12312	18.805550839471	42018
3	12330	18.819390839471	42159
3	12340	18.833230839471	42300
3	12363	18.860910839471	42441
3	12373	18.874750839471	42582
3	12383	18.888590839471	42723
3	12424	18.916270839471	42864
3	12431	18.930110839471	43005
3	12441	18.943950839471	43146
3	12464	18.971630839471	43287
3	12472	18.999310839471	43428
3	12506	19.013150839471	43569
3	12533	19.068510839471	43710
3	12540	19.082350839471	43851
3	12547	19.096190839471	43992
3	12595	19.123870839471	44133
3	12602	19.137710839471	44274
3	12624	19.151550839471	44415
3	12634	19.165390839471	44556
3	12641	19.179230839471	44697
3	12648	19.193070839471	44838
3	12684	19.206910839471	44979
3	12692	19.220750839471	45120
3	12702	19.234590839471	45261
3	12709	19.248430839471	45402
3	12737	19.262270839471	45543
3	12751	19.276110839471	45684
3	12761	19.289950839471	45825
3	12797	19.331470839471	45966
3	12804	19.345310839471	46107
3	12826	19.359150839471	46248
3	12943	19.41577129477	46389
3	12953	19.42961129477	46530
3	12973	19.45729129477	46671
3	12984	19.48497129477	46812
3	12994	19.49881129477	46953
3	13028	19.51265129477	47094
3	13038	19.52649129477	47235
3	13062	19.56801129477	47376
3	13069	19.58185129477	47517
3	13104	19.60953129477	47658
3	13111	19.62337129477	47799
3	13121	19.63721129477	47940
3	13157	19.66489129477	48081
3	13167	19.67873129477	48222
3	13174	19.69257129477	48363
3	13205	19.70641129477	48504
3	13217	19.74793129477	48645
3	13239	19.76177129477	48786
3	13249	19.77561129477	48927
3	13283	19.80329129477	49068
3	13294	19.81713129477	49209
3	13301	19.83097129477	49350
3	13324	19.85865129477	49491
3	13335	19.88633129477	49632
3	14078	21.584110839471	49773
3	14088	21.597950839471	49914
3	14122	21.611790839471	50055
3	14129	21.625630839471	50196
3	14139	21.639470839471	50337
3	14185	21.680990839471	50478
3	14217	21.708670839471	50619
3	14227	21.722510839471	50760
3	14237	21.736350839471	50901
3	14256	21.750190839471	51042
3	14266	21.764030839471	51183
3	15126	23.778750839471	51324
3	15169	23.820270839471	51465
3	15179	23.834110839471	51606
3	15189	23.847950839471	51747
3	15208	23.861790839471	51888
3	15218	23.875630839471	52029
3	15561	24.538430839471	52170
3	15583	24.552270839471	52311
3	15593	24.566110839471	52452
3	15604	24.593790839471	52593
3	15638	24.607630839471	52734
3	15645	24.621470839471	52875
3	15655	24.635310839471	53016
3	15896	25.088430839471	53157
3	15930	25.102270839471	53298
3	15940	25.116110839471	53439
3	15947	25.129950839471	53580
3	16598	26.678750839471	53721
3	17004	27.528750839471	53862
3	17029	27.556430839471	54003
3	17050	27.570270839471	54144
3	17060	27.584110839471	54285
3	17498	28.578750839471	54426
3	17857	29.442590839471	54567
3	18385	30.728750839471	54708
3	19069	32.028750839471	54849
3	19076	32.042590839471	54990
3	19098	32.056430839471	55131
3	19105	32.070270839471	55272
3	19115	32.084110839471	55413
3	19125	32.097950839471	55554
3	19164	32.111790839471	55695
3	19180	32.139470839471	55836
3	19202	32.153310839471	55977
3	19212	32.167150839471	56118
3	19219	32.180990839471	56259
3	19252	32.222510839471	56400
3	19276	32.264030839471	56541
3	19286	32.277870839471	56682
3	19318	32.305550839471	56823
3	19325	32.319390839471	56964
3	19332	32.333230839471	57105
3	19339	32.347070839471	57246
3	19367	32.360910839471	57387
3	19377	32.374750839471	57528
3	19412	32.402430839471	57669
3	19422	32.416270839471	57810
3	19432	32.430110839471	57951
3	19442	32.443950839471	58092
3	19464	32.457790839471	58233
3	19475	32.485470839471	58374
3	19590	32.578750839471	58515
3	19600	32.592590839471	58656
3	19634	32.606430839471	58797
3	19641	32.620270839471	58938
3	19652	32.647950839471	59079
3	19674	32.661790839471	59220
3	19684	32.675630839471	59361
3	19716	32.703310839471	59502
3	19725	32.744830839471	59643
3	19747	32.758670839471	59784
3	19755	32.786350839471	59925
3	19790	32.814030839471	60066
3	20585	34.678750839471	60207
3	20595	34.692590839471	60348
3	20626	34.706430839471	60489
3	20636	34.720270839471	60630
3	20646	34.734110839471	60771
3	20656	34.747950839471	60912
3	20675	34.761790839471	61053
3	20682	34.775630839471	61194
3	20692	34.789470839471	61335
3	20727	34.817150839471	61476
3	21886	37.488430839471	61617
3	24987	44.828750839471	61758
3	25012	44.856430839471	61899
3	25027	44.870270839471	62040
3	26629	48.592590839471	62181
3	26663	48.606430839471	62322
3	26673	48.620270839471	62463
3	26683	48.634110839471	62604
3	26920	49.128750839471	62745
3	31900	60.678750839471	62886

