version 2
run B-0-20190928-17:24:59-26489
attr configname B
attr datetime 20190928-17:24:59
attr experiment B
attr inifile SimV2.ini
attr iterationvars ""
attr iterationvarsf ""
attr measurement ""
attr network NetworkTormV2
attr processid 26489
attr repetition 0
attr replication #0
attr resultdir results
attr runnumber 0
attr seedset 0
param **.mobility.traceFile "\"paths/B.movements\""
param **.numNodes 4
param **.wirelessIfc.wirelessRange 40m
param **.bluetoothIfc.wirelessRange 40m
param **application.destinationAddr "\"Wf:00:00:00:00:02\""
param **application.destinationBTAddr "\"Bt:00:00:00:00:02\""
param **application.nodesThatGen true
param **application.nodesGenMsg "\"0,1\""
param **application.startMultipleMsg true
param **application.numMultipleMsg 100
param **application.hopsListSize 50
param **.numNodes 2
param **.application.usedRNG 1
param **.application.dataGenerationInterval 1ms
param **.application.dataSizeInBytes 10
param **.application.ttl 999999s
param **application.destinationAddr "\"Wf:00:00:00:00:02\""
param **application.destinationBTAddr "\"Bt:00:00:00:00:02\""
param **application.nodesThatGen true
param **application.nodesGenMsg "\"0\""
param **application.startMultipleMsg true
param **application.numMultipleMsg 100
param **application.hopsListSize 50
param **.application.endGeneratingMsg 999999s
param **.routingLayer "\"RoutingLQE\""
param **.routing.maximumCacheSize 5000byte
param **.routing.maximumHopCount 25
param **.routing.useTTL false
param **.routing.waitBFsend 0.5
param **.routing.max_age 999999s
param **.routing.gateway_list "\"Wf:00:00:00:00:02;0|.\""
param **.routing.actual_gateway "\"Wf:00:00:00:00:02\""
param **.neighboring.antiEntropyInterval 500ms
param **.neighboring.maximumRandomBackoffDuration 1s
param **.neighboring.delayPerDataMsg 0.1
param **neighboring.usedRNG 2
param **.neighboring.GWAddr "\"Wf:00:00:00:00:02\""
param **.neighboring.sendWifiFirst true
param **.neighboring.maxLengthGraph 20
param **.neighboring.max_age 999999s
param **.neighboring.max_absent_time 1s
param **.wirelessIfc.wirelessRange 15m
param **.wirelessIfc.neighbourScanInterval 50ms
param **.wirelessIfc.bandwidthBitRate 100000bps
param **.wirelessIfc.wirelessHeaderSize 32byte
param **.wirelessIfc.minSSI -90
param **.wirelessIfc.limitQueueTime 400ms
param **.wirelessIfc.my_limit_rate 0bps
param **.bluetoothIfc.wirelessRange 15m
param **.bluetoothIfc.neighbourScanInterval 100ms
param **.bluetoothIfc.bandwidthBitRate 100000bps
param **.bluetoothIfc.wirelessHeaderSize 16byte
param **.bluetoothIfc.minSSI -90
param **.mobilityType "\"BonnMotionMobility\""
param **.mobility.traceFile "\"paths/Moves2.movements\""
param **.mobility.is3D false
param **.mobility.nodeId -1

vector 0 NetworkTormV2 neighbourhoodSize:vector ETV
attr source neighbourhoodSize
vector 1 NetworkTormV2 deliveryRatio:vector ETV
attr source sum(totalDataBytesReceived)/sum(totalDataBytesReceivableByAllNodes)
vector 2 NetworkTormV2 dataBytesReceivedSum:vector ETV
attr source sum(dataBytesReceived)
vector 3 NetworkTormV2 totalBytesReceivedSum:vector ETV
attr source sum(totalBytesReceived)
0	13	0.05	2
0	14	0.05	2
0	15	0.05	2
0	16	0.05	2
0	30	0.1	2
0	32	0.1	2
0	33	0.1	2
0	34	0.1	2
0	35	0.1	2
0	36	0.1	2
0	37	0.1	2
0	38	0.1	2
0	257	0.15	2
0	258	0.15	2
0	259	0.15	2
0	260	0.15	2
0	473	0.2	2
0	474	0.2	2
0	475	0.2	2
0	476	0.2	2
0	477	0.2	2
0	478	0.2	2
0	479	0.2	2
0	480	0.2	2
0	501	0.25	2
0	502	0.25	2
0	503	0.25	2
0	504	0.25	2
0	517	0.3	2
0	518	0.3	2
0	519	0.3	2
0	520	0.3	2
0	521	0.3	2
0	522	0.3	2
0	523	0.3	2
0	524	0.3	2
0	545	0.35	2
0	546	0.35	2
0	547	0.35	2
0	548	0.35	2
0	561	0.4	2
0	562	0.4	2
0	563	0.4	2
0	564	0.4	2
0	565	0.4	2
0	566	0.4	2
0	567	0.4	2
0	568	0.4	2
0	589	0.45	2
0	590	0.45	2
0	591	0.45	2
0	592	0.45	2
0	605	0.5	2
0	606	0.5	2
0	607	0.5	2
0	608	0.5	2
0	609	0.5	2
0	610	0.5	2
0	611	0.5	2
0	612	0.5	2
0	633	0.55	2
0	634	0.55	2
0	635	0.55	2
0	636	0.55	2
0	649	0.6	2
0	650	0.6	2
0	651	0.6	2
0	652	0.6	2
0	653	0.6	2
0	654	0.6	2
0	655	0.6	2
0	656	0.6	2
0	677	0.65	2
0	678	0.65	2
0	679	0.65	2
0	680	0.65	2
0	693	0.7	2
0	694	0.7	2
0	695	0.7	2
0	696	0.7	2
0	697	0.7	2
0	698	0.7	2
0	699	0.7	2
0	700	0.7	2
0	721	0.75	2
0	722	0.75	2
0	723	0.75	2
0	724	0.75	2
0	737	0.8	2
0	738	0.8	2
0	739	0.8	2
0	740	0.8	2
0	741	0.8	2
0	742	0.8	2
0	743	0.8	2
0	744	0.8	2
0	765	0.85	2
0	766	0.85	2
0	767	0.85	2
0	768	0.85	2
0	781	0.9	2
0	782	0.9	2
0	783	0.9	2
0	784	0.9	2
0	785	0.9	2
0	786	0.9	2
0	787	0.9	2
0	788	0.9	2
0	809	0.95	2
0	810	0.95	2
0	811	0.95	2
0	812	0.95	2
0	825	1	2
0	826	1	2
0	827	1	2
0	828	1	2
0	829	1	2
0	830	1	2
0	831	1	2
0	832	1	2
0	853	1.05	2
0	854	1.05	2
0	855	1.05	2
0	856	1.05	2
0	869	1.1	2
0	870	1.1	2
0	871	1.1	2
0	872	1.1	2
0	873	1.1	2
0	874	1.1	2
0	875	1.1	2
0	876	1.1	2
0	987	1.15	2
0	988	1.15	2
0	989	1.15	2
0	990	1.15	2
0	1003	1.2	2
0	1004	1.2	2
0	1005	1.2	2
0	1006	1.2	2
0	1007	1.2	2
0	1008	1.2	2
0	1009	1.2	2
0	1010	1.2	2
0	1031	1.25	2
0	1032	1.25	2
0	1033	1.25	2
0	1034	1.25	2
0	1047	1.3	2
0	1048	1.3	2
0	1049	1.3	2
0	1050	1.3	2
0	1051	1.3	2
0	1052	1.3	2
0	1053	1.3	2
0	1054	1.3	2
0	1075	1.35	2
0	1076	1.35	2
0	1077	1.35	2
0	1078	1.35	2
0	1091	1.4	2
0	1092	1.4	2
0	1093	1.4	2
0	1094	1.4	2
0	1095	1.4	2
0	1096	1.4	2
0	1097	1.4	2
0	1098	1.4	2
0	1119	1.45	2
0	1120	1.45	2
0	1121	1.45	2
0	1122	1.45	2
0	1135	1.5	2
0	1136	1.5	2
0	1137	1.5	2
0	1138	1.5	2
0	1139	1.5	2
0	1140	1.5	2
0	1141	1.5	2
0	1142	1.5	2
0	1163	1.55	2
0	1164	1.55	2
0	1165	1.55	2
0	1166	1.55	2
0	1179	1.6	2
0	1180	1.6	2
0	1181	1.6	2
0	1182	1.6	2
0	1183	1.6	2
0	1184	1.6	2
0	1185	1.6	2
0	1186	1.6	2
0	1207	1.65	2
0	1208	1.65	2
0	1209	1.65	2
0	1210	1.65	2
0	1498	1.7	2
0	1499	1.7	2
0	1500	1.7	2
0	1501	1.7	2
0	1502	1.7	2
0	1503	1.7	2
0	1504	1.7	2
0	1505	1.7	2
0	1557	1.75	2
0	1558	1.75	2
0	1559	1.75	2
0	1560	1.75	2
0	1609	1.8	2
0	1610	1.8	2
0	1611	1.8	2
0	1612	1.8	2
0	1613	1.8	2
0	1614	1.8	2
0	1615	1.8	2
0	1616	1.8	2
0	1685	1.85	2
0	1686	1.85	2
0	1687	1.85	2
0	1688	1.85	2
0	1711	1.9	2
0	1712	1.9	2
0	1713	1.9	2
0	1714	1.9	2
0	1715	1.9	2
0	1716	1.9	2
0	1717	1.9	2
0	1718	1.9	2
0	1760	1.95	2
0	1761	1.95	2
0	1762	1.95	2
0	1763	1.95	2
0	1795	2	2
0	1796	2	2
0	1797	2	2
0	1798	2	2
0	1799	2	2
0	1800	2	2
0	1801	2	2
0	1802	2	2
0	1853	2.05	2
0	1854	2.05	2
0	1855	2.05	2
0	1856	2.05	2
0	1882	2.1	2
0	1883	2.1	2
0	1884	2.1	2
0	1885	2.1	2
0	1886	2.1	2
0	1887	2.1	2
0	1888	2.1	2
0	1889	2.1	2
0	1941	2.15	2
0	1942	2.15	2
0	1943	2.15	2
0	1944	2.15	2
0	1987	2.2	2
0	1988	2.2	2
0	1989	2.2	2
0	1990	2.2	2
0	1991	2.2	2
0	1992	2.2	2
0	1993	2.2	2
0	1994	2.2	2
0	2089	2.25	2
0	2090	2.25	2
0	2091	2.25	2
0	2092	2.25	2
0	2124	2.3	2
0	2125	2.3	2
0	2126	2.3	2
0	2127	2.3	2
0	2128	2.3	2
0	2129	2.3	2
0	2130	2.3	2
0	2131	2.3	2
0	2164	2.35	2
0	2165	2.35	2
0	2166	2.35	2
0	2167	2.35	2
0	2212	2.4	2
0	2213	2.4	2
0	2214	2.4	2
0	2215	2.4	2
0	2216	2.4	2
0	2217	2.4	2
0	2218	2.4	2
0	2219	2.4	2
0	2270	2.45	2
0	2271	2.45	2
0	2272	2.45	2
0	2273	2.45	2
0	2317	2.5	2
0	2318	2.5	2
0	2319	2.5	2
0	2320	2.5	2
0	2321	2.5	2
0	2322	2.5	2
0	2323	2.5	2
0	2324	2.5	2
0	2355	2.55	2
0	2356	2.55	2
0	2357	2.55	2
0	2358	2.55	2
0	2401	2.6	2
0	2402	2.6	2
0	2403	2.6	2
0	2404	2.6	2
0	2405	2.6	2
0	2406	2.6	2
0	2407	2.6	2
0	2408	2.6	2
0	2457	2.65	2
0	2458	2.65	2
0	2459	2.65	2
0	2460	2.65	2
0	2492	2.7	2
0	2493	2.7	2
0	2494	2.7	2
0	2495	2.7	2
0	2496	2.7	2
0	2497	2.7	2
0	2498	2.7	2
0	2499	2.7	2
0	2541	2.75	2
0	2542	2.75	2
0	2543	2.75	2
0	2544	2.75	2
0	2595	2.8	2
0	2596	2.8	2
0	2597	2.8	2
0	2598	2.8	2
0	2599	2.8	2
0	2600	2.8	2
0	2601	2.8	2
0	2602	2.8	2
0	2650	2.85	2
0	2651	2.85	2
0	2652	2.85	2
0	2653	2.85	2
0	2694	2.9	2
0	2695	2.9	2
0	2696	2.9	2
0	2697	2.9	2
0	2698	2.9	2
0	2699	2.9	2
0	2700	2.9	2
0	2701	2.9	2
0	2749	2.95	2
0	2750	2.95	2
0	2751	2.95	2
0	2752	2.95	2
0	2778	3	2
0	2779	3	2
0	2780	3	2
0	2781	3	2
0	2782	3	2
0	2783	3	2
0	2784	3	2
0	2785	3	2
0	2834	3.05	2
0	2835	3.05	2
0	2836	3.05	2
0	2837	3.05	2
0	2865	3.1	2
0	2866	3.1	2
0	2867	3.1	2
0	2868	3.1	2
0	2869	3.1	2
0	2870	3.1	2
0	2871	3.1	2
0	2872	3.1	2
0	2893	3.15	2
0	2894	3.15	2
0	2895	3.15	2
0	2896	3.15	2
0	2909	3.2	2
0	2910	3.2	2
0	2911	3.2	2
0	2912	3.2	2
0	2913	3.2	2
0	2914	3.2	2
0	2915	3.2	2
0	2916	3.2	2
0	2937	3.25	2
0	2938	3.25	2
0	2939	3.25	2
0	2940	3.25	2
0	2953	3.3	2
0	2954	3.3	2
0	2955	3.3	2
0	2956	3.3	2
0	2957	3.3	2
0	2958	3.3	2
0	2959	3.3	2
0	2960	3.3	2
0	2981	3.35	2
0	2982	3.35	2
0	2983	3.35	2
0	2984	3.35	2
0	2997	3.4	2
0	2998	3.4	2
0	2999	3.4	2
0	3000	3.4	2
0	3001	3.4	2
0	3002	3.4	2
0	3003	3.4	2
0	3004	3.4	2
0	3039	3.45	2
0	3040	3.45	2
0	3041	3.45	2
0	3042	3.45	2
0	3055	3.5	2
0	3056	3.5	2
0	3057	3.5	2
0	3058	3.5	2
0	3059	3.5	2
0	3060	3.5	2
0	3061	3.5	2
0	3062	3.5	2
0	3083	3.55	2
0	3084	3.55	2
0	3085	3.55	2
0	3086	3.55	2
0	3225	3.6	2
0	3226	3.6	2
0	3227	3.6	2
0	3228	3.6	2
0	3229	3.6	2
0	3230	3.6	2
0	3231	3.6	2
0	3232	3.6	2
0	3280	3.65	2
0	3281	3.65	2
0	3282	3.65	2
0	3283	3.65	2
0	3324	3.7	2
0	3325	3.7	2
0	3326	3.7	2
0	3327	3.7	2
0	3328	3.7	2
0	3329	3.7	2
0	3330	3.7	2
0	3331	3.7	2
0	3371	3.75	2
0	3372	3.75	2
0	3373	3.75	2
0	3374	3.75	2
0	3412	3.8	2
0	3413	3.8	2
0	3414	3.8	2
0	3415	3.8	2
0	3416	3.8	2
0	3417	3.8	2
0	3418	3.8	2
0	3419	3.8	2
0	3475	3.85	2
0	3476	3.85	2
0	3477	3.85	2
0	3478	3.85	2
0	3519	3.9	2
0	3520	3.9	2
0	3521	3.9	2
0	3522	3.9	2
0	3523	3.9	2
0	3524	3.9	2
0	3525	3.9	2
0	3526	3.9	2
0	3550	3.95	2
0	3551	3.95	2
0	3552	3.95	2
0	3553	3.95	2
0	3609	4	2
0	3610	4	2
0	3611	4	2
0	3612	4	2
0	3613	4	2
0	3614	4	2
0	3615	4	2
0	3616	4	2
0	3650	4.05	2
0	3651	4.05	2
0	3652	4.05	2
0	3653	4.05	2
0	3678	4.1	2
0	3679	4.1	2
0	3680	4.1	2
0	3681	4.1	2
0	3682	4.1	2
0	3683	4.1	2
0	3684	4.1	2
0	3685	4.1	2
0	3727	4.15	2
0	3728	4.15	2
0	3729	4.15	2
0	3730	4.15	2
0	3770	4.2	2
0	3771	4.2	2
0	3772	4.2	2
0	3773	4.2	2
0	3774	4.2	2
0	3775	4.2	2
0	3776	4.2	2
0	3777	4.2	2
0	3829	4.25	2
0	3830	4.25	2
0	3831	4.25	2
0	3832	4.25	2
0	3878	4.3	2
0	3879	4.3	2
0	3880	4.3	2
0	3881	4.3	2
0	3882	4.3	2
0	3883	4.3	2
0	3884	4.3	2
0	3885	4.3	2
0	3906	4.35	2
0	3907	4.35	2
0	3908	4.35	2
0	3909	4.35	2
0	3946	4.4	2
0	3947	4.4	2
0	3948	4.4	2
0	3949	4.4	2
0	3950	4.4	2
0	3951	4.4	2
0	3952	4.4	2
0	3953	4.4	2
0	3974	4.45	2
0	3975	4.45	2
0	3976	4.45	2
0	3977	4.45	2
0	3990	4.5	2
0	3991	4.5	2
0	3992	4.5	2
0	3993	4.5	2
0	3994	4.5	2
0	3995	4.5	2
0	3996	4.5	2
0	3997	4.5	2
0	4042	4.55	2
0	4043	4.55	2
0	4044	4.55	2
0	4045	4.55	2
0	4058	4.6	2
0	4059	4.6	2
0	4060	4.6	2
0	4061	4.6	2
0	4062	4.6	2
0	4063	4.6	2
0	4064	4.6	2
0	4065	4.6	2
0	4086	4.65	2
0	4087	4.65	2
0	4088	4.65	2
0	4089	4.65	2
0	4102	4.7	2
0	4103	4.7	2
0	4104	4.7	2
0	4105	4.7	2
0	4106	4.7	2
0	4107	4.7	2
0	4108	4.7	2
0	4109	4.7	2
0	4130	4.75	2
0	4131	4.75	2
0	4132	4.75	2
0	4133	4.75	2
0	4146	4.8	2
0	4147	4.8	2
0	4148	4.8	2
0	4149	4.8	2
0	4150	4.8	2
0	4151	4.8	2
0	4152	4.8	2
0	4153	4.8	2
0	4174	4.85	2
0	4175	4.85	2
0	4176	4.85	2
0	4177	4.85	2
0	4190	4.9	2
0	4191	4.9	2
0	4192	4.9	2
0	4193	4.9	2
0	4194	4.9	2
0	4195	4.9	2
0	4196	4.9	2
0	4197	4.9	2
0	4597	4.95	2
0	4598	4.95	2
0	4599	4.95	2
0	4600	4.95	2
0	4622	5	2
0	4623	5	2
0	4624	5	2
0	4625	5	2
0	4626	5	2
0	4627	5	2
0	4628	5	2
0	4629	5	2
0	4672	5.05	2
0	4673	5.05	2
0	4674	5.05	2
0	4675	5.05	2
0	4727	5.1	2
0	4728	5.1	2
0	4729	5.1	2
0	4730	5.1	2
0	4731	5.1	2
0	4732	5.1	2
0	4733	5.1	2
0	4734	5.1	2
0	4777	5.15	2
0	4778	5.15	2
0	4779	5.15	2
0	4780	5.15	2
0	4805	5.2	2
0	4806	5.2	2
0	4807	5.2	2
0	4808	5.2	2
0	4809	5.2	2
0	4810	5.2	2
0	4811	5.2	2
0	4812	5.2	2
0	4873	5.25	2
0	4874	5.25	2
0	4875	5.25	2
0	4876	5.25	2
0	4910	5.3	2
0	4911	5.3	2
0	4912	5.3	2
0	4913	5.3	2
0	4914	5.3	2
0	4915	5.3	2
0	4916	5.3	2
0	4917	5.3	2
0	4960	5.35	2
0	4961	5.35	2
0	4962	5.35	2
0	4963	5.35	2
0	4995	5.4	2
0	4996	5.4	2
0	4997	5.4	2
0	4998	5.4	2
0	4999	5.4	2
0	5000	5.4	2
0	5001	5.4	2
0	5002	5.4	2
0	5049	5.45	2
0	5050	5.45	2
0	5051	5.45	2
0	5052	5.45	2
0	5092	5.5	2
0	5093	5.5	2
0	5094	5.5	2
0	5095	5.5	2
0	5096	5.5	2
0	5097	5.5	2
0	5098	5.5	2
0	5099	5.5	2
0	5152	5.55	2
0	5153	5.55	2
0	5154	5.55	2
0	5155	5.55	2
0	5193	5.6	2
0	5194	5.6	2
0	5195	5.6	2
0	5196	5.6	2
0	5197	5.6	2
0	5198	5.6	2
0	5199	5.6	2
0	5200	5.6	2
0	5248	5.65	2
0	5249	5.65	2
0	5250	5.65	2
0	5251	5.65	2
0	5281	5.7	2
0	5282	5.7	2
0	5283	5.7	2
0	5284	5.7	2
0	5285	5.7	2
0	5286	5.7	2
0	5287	5.7	2
0	5288	5.7	2
0	5322	5.75	2
0	5323	5.75	2
0	5324	5.75	2
0	5325	5.75	2
0	5356	5.8	2
0	5357	5.8	2
0	5358	5.8	2
0	5359	5.8	2
0	5360	5.8	2
0	5361	5.8	2
0	5362	5.8	2
0	5363	5.8	2
0	5394	5.85	2
0	5395	5.85	2
0	5396	5.85	2
0	5397	5.85	2
0	5437	5.9	2
0	5438	5.9	2
0	5439	5.9	2
0	5440	5.9	2
0	5441	5.9	2
0	5442	5.9	2
0	5443	5.9	2
0	5444	5.9	2
0	5487	5.95	2
0	5488	5.95	2
0	5489	5.95	2
0	5490	5.95	2
0	5516	6	2
0	5517	6	2
0	5518	6	2
0	5519	6	2
0	5520	6	2
0	5521	6	2
0	5522	6	2
0	5523	6	2
0	5557	6.05	2
0	5558	6.05	2
0	5559	6.05	2
0	5560	6.05	2
0	5591	6.1	2
0	5592	6.1	2
0	5593	6.1	2
0	5594	6.1	2
0	5595	6.1	2
0	5596	6.1	2
0	5597	6.1	2
0	5598	6.1	2
0	5644	6.15	2
0	5645	6.15	2
0	5646	6.15	2
0	5647	6.15	2
0	5678	6.2	2
0	5679	6.2	2
0	5680	6.2	2
0	5681	6.2	2
0	5682	6.2	2
0	5683	6.2	2
0	5684	6.2	2
0	5685	6.2	2
0	5746	6.25	2
0	5747	6.25	2
0	5748	6.25	2
0	5749	6.25	2
0	5784	6.3	2
0	5785	6.3	2
0	5786	6.3	2
0	5787	6.3	2
0	5788	6.3	2
0	5789	6.3	2
0	5790	6.3	2
0	5791	6.3	2
0	5839	6.35	2
0	5840	6.35	2
0	5841	6.35	2
0	5842	6.35	2
0	5886	6.4	2
0	5887	6.4	2
0	5888	6.4	2
0	5889	6.4	2
0	5890	6.4	2
0	5891	6.4	2
0	5892	6.4	2
0	5893	6.4	2
0	5926	6.45	2
0	5927	6.45	2
0	5928	6.45	2
0	5929	6.45	2
0	5961	6.5	2
0	5962	6.5	2
0	5963	6.5	2
0	5964	6.5	2
0	5965	6.5	2
0	5966	6.5	2
0	5967	6.5	2
0	5968	6.5	2
0	6016	6.55	2
0	6017	6.55	2
0	6018	6.55	2
0	6019	6.55	2
0	6054	6.6	2
0	6055	6.6	2
0	6056	6.6	2
0	6057	6.6	2
0	6058	6.6	2
0	6059	6.6	2
0	6060	6.6	2
0	6061	6.6	2
0	6116	6.65	2
0	6117	6.65	2
0	6118	6.65	2
0	6119	6.65	2
0	6159	6.7	2
0	6160	6.7	2
0	6161	6.7	2
0	6162	6.7	2
0	6163	6.7	2
0	6164	6.7	2
0	6165	6.7	2
0	6166	6.7	2
0	6199	6.75	2
0	6200	6.75	2
0	6201	6.75	2
0	6202	6.75	2
0	6237	6.8	2
0	6238	6.8	2
0	6239	6.8	2
0	6240	6.8	2
0	6241	6.8	2
0	6242	6.8	2
0	6243	6.8	2
0	6244	6.8	2
0	6292	6.85	2
0	6293	6.85	2
0	6294	6.85	2
0	6295	6.85	2
0	6321	6.9	2
0	6322	6.9	2
0	6323	6.9	2
0	6324	6.9	2
0	6325	6.9	2
0	6326	6.9	2
0	6327	6.9	2
0	6328	6.9	2
0	6373	6.95	2
0	6374	6.95	2
0	6375	6.95	2
0	6376	6.95	2
0	6402	7	2
0	6403	7	2
0	6404	7	2
0	6405	7	2
0	6406	7	2
0	6407	7	2
0	6408	7	2
0	6409	7	2
0	6469	7.05	2
0	6470	7.05	2
0	6471	7.05	2
0	6472	7.05	2
0	6502	7.1	2
0	6503	7.1	2
0	6504	7.1	2
0	6505	7.1	2
0	6506	7.1	2
0	6507	7.1	2
0	6508	7.1	2
0	6509	7.1	2
0	6555	7.15	2
0	6556	7.15	2
0	6557	7.15	2
0	6558	7.15	2
0	6598	7.2	2
0	6599	7.2	2
0	6600	7.2	2
0	6601	7.2	2
0	6602	7.2	2
0	6603	7.2	2
0	6604	7.2	2
0	6605	7.2	2
0	6651	7.25	2
0	6652	7.25	2
0	6653	7.25	2
0	6654	7.25	2
0	6685	7.3	2
0	6686	7.3	2
0	6687	7.3	2
0	6688	7.3	2
0	6689	7.3	2
0	6690	7.3	2
0	6691	7.3	2
0	6692	7.3	2
0	6726	7.35	2
0	6727	7.35	2
0	6728	7.35	2
0	6729	7.35	2
0	6742	7.4	2
0	6743	7.4	2
0	6744	7.4	2
0	6745	7.4	2
0	6746	7.4	2
0	6747	7.4	2
0	6748	7.4	2
0	6749	7.4	2
0	6770	7.45	2
0	6771	7.45	2
0	6772	7.45	2
0	6773	7.45	2
0	6800	7.5	2
0	6801	7.5	2
0	6802	7.5	2
0	6803	7.5	2
0	6804	7.5	2
0	6805	7.5	2
0	6806	7.5	2
0	6807	7.5	2
0	6828	7.55	2
0	6829	7.55	2
0	6830	7.55	2
0	6831	7.55	2
0	6844	7.6	2
0	6845	7.6	2
0	6846	7.6	2
0	6847	7.6	2
0	6848	7.6	2
0	6849	7.6	2
0	6850	7.6	2
0	6851	7.6	2
0	6882	7.65	2
0	6883	7.65	2
0	6884	7.65	2
0	6885	7.65	2
0	6912	7.7	2
0	6913	7.7	2
0	6914	7.7	2
0	6915	7.7	2
0	6916	7.7	2
0	6917	7.7	2
0	6918	7.7	2
0	6919	7.7	2
0	6940	7.75	2
0	6941	7.75	2
0	6942	7.75	2
0	6943	7.75	2
0	6956	7.8	2
0	6957	7.8	2
0	6958	7.8	2
0	6959	7.8	2
0	6960	7.8	2
0	6961	7.8	2
0	6962	7.8	2
0	6963	7.8	2
0	6987	7.85	2
0	6988	7.85	2
0	6989	7.85	2
0	6990	7.85	2
0	7003	7.9	2
0	7004	7.9	2
0	7005	7.9	2
0	7006	7.9	2
0	7007	7.9	2
0	7008	7.9	2
0	7009	7.9	2
0	7010	7.9	2
0	7031	7.95	2
0	7032	7.95	2
0	7033	7.95	2
0	7034	7.95	2
0	7047	8	2
0	7048	8	2
0	7049	8	2
0	7050	8	2
0	7051	8	2
0	7052	8	2
0	7053	8	2
0	7054	8	2
0	7078	8.05	2
0	7079	8.05	2
0	7080	8.05	2
0	7081	8.05	2
0	7094	8.1	2
0	7095	8.1	2
0	7096	8.1	2
0	7097	8.1	2
0	7098	8.1	2
0	7099	8.1	2
0	7100	8.1	2
0	7101	8.1	2
0	7125	8.15	2
0	7126	8.15	2
0	7127	8.15	2
0	7128	8.15	2
0	7141	8.2	2
0	7142	8.2	2
0	7143	8.2	2
0	7144	8.2	2
0	7145	8.2	2
0	7146	8.2	2
0	7147	8.2	2
0	7148	8.2	2
0	7169	8.25	2
0	7170	8.25	2
0	7171	8.25	2
0	7172	8.25	2
0	7199	8.3	2
0	7200	8.3	2
0	7201	8.3	2
0	7202	8.3	2
0	7203	8.3	2
0	7204	8.3	2
0	7205	8.3	2
0	7206	8.3	2
0	7227	8.35	2
0	7228	8.35	2
0	7229	8.35	2
0	7230	8.35	2
0	7243	8.4	2
0	7244	8.4	2
0	7245	8.4	2
0	7246	8.4	2
0	7247	8.4	2
0	7248	8.4	2
0	7249	8.4	2
0	7250	8.4	2
0	7271	8.45	2
0	7272	8.45	2
0	7273	8.45	2
0	7274	8.45	2
0	7287	8.5	2
0	7288	8.5	2
0	7289	8.5	2
0	7290	8.5	2
0	7291	8.5	2
0	7292	8.5	2
0	7293	8.5	2
0	7294	8.5	2
0	7315	8.55	2
0	7316	8.55	2
0	7317	8.55	2
0	7318	8.55	2
0	7331	8.6	2
0	7332	8.6	2
0	7333	8.6	2
0	7334	8.6	2
0	7335	8.6	2
0	7336	8.6	2
0	7337	8.6	2
0	7338	8.6	2
0	7369	8.65	2
0	7370	8.65	2
0	7371	8.65	2
0	7372	8.65	2
0	7388	8.7	2
0	7389	8.7	2
0	7390	8.7	2
0	7391	8.7	2
0	7392	8.7	2
0	7393	8.7	2
0	7394	8.7	2
0	7395	8.7	2
0	7416	8.75	2
0	7417	8.75	2
0	7418	8.75	2
0	7419	8.75	2
0	7522	8.8	2
0	7523	8.8	2
0	7524	8.8	2
0	7525	8.8	2
0	7526	8.8	2
0	7527	8.8	2
0	7528	8.8	2
0	7529	8.8	2
0	7583	8.85	2
0	7584	8.85	2
0	7585	8.85	2
0	7586	8.85	2
0	7621	8.9	2
0	7622	8.9	2
0	7623	8.9	2
0	7624	8.9	2
0	7625	8.9	2
0	7626	8.9	2
0	7627	8.9	2
0	7628	8.9	2
0	7677	8.95	2
0	7678	8.95	2
0	7679	8.95	2
0	7680	8.95	2
0	7697	9	2
0	7698	9	2
0	7699	9	2
0	7700	9	2
0	7701	9	2
0	7702	9	2
0	7703	9	2
0	7704	9	2
0	7752	9.05	2
0	7753	9.05	2
0	7754	9.05	2
0	7755	9.05	2
0	7787	9.1	2
0	7788	9.1	2
0	7789	9.1	2
0	7790	9.1	2
0	7791	9.1	2
0	7792	9.1	2
0	7793	9.1	2
0	7794	9.1	2
0	7833	9.15	2
0	7834	9.15	2
0	7835	9.15	2
0	7836	9.15	2
0	7895	9.2	2
0	7896	9.2	2
0	7897	9.2	2
0	7898	9.2	2
0	7899	9.2	2
0	7900	9.2	2
0	7901	9.2	2
0	7902	9.2	2
0	8166	9.25	2
0	8167	9.25	2
0	8168	9.25	2
0	8169	9.25	2
0	8205	9.3	2
0	8206	9.3	2
0	8207	9.3	2
0	8208	9.3	2
0	8209	9.3	2
0	8210	9.3	2
0	8211	9.3	2
0	8212	9.3	2
0	8322	9.35	2
0	8323	9.35	2
0	8324	9.35	2
0	8325	9.35	2
0	8414	9.4	2
0	8415	9.4	2
0	8416	9.4	2
0	8417	9.4	2
0	8418	9.4	2
0	8419	9.4	2
0	8420	9.4	2
0	8421	9.4	2
0	8492	9.45	2
0	8493	9.45	2
0	8494	9.45	2
0	8495	9.45	2
0	8551	9.5	2
0	8552	9.5	2
0	8553	9.5	2
0	8554	9.5	2
0	8555	9.5	2
0	8556	9.5	2
0	8557	9.5	2
0	8558	9.5	2
0	8632	9.55	2
0	8633	9.55	2
0	8634	9.55	2
0	8635	9.55	2
0	8681	9.6	2
0	8682	9.6	2
0	8683	9.6	2
0	8684	9.6	2
0	8685	9.6	2
0	8686	9.6	2
0	8687	9.6	2
0	8688	9.6	2
0	8821	9.65	2
0	8822	9.65	2
0	8823	9.65	2
0	8824	9.65	2
0	8883	9.7	2
0	8884	9.7	2
0	8885	9.7	2
0	8886	9.7	2
0	8887	9.7	2
0	8888	9.7	2
0	8889	9.7	2
0	8890	9.7	2
0	8972	9.75	2
0	8973	9.75	2
0	8974	9.75	2
0	8975	9.75	2
0	9061	9.8	2
0	9062	9.8	2
0	9063	9.8	2
0	9064	9.8	2
0	9065	9.8	2
0	9066	9.8	2
0	9067	9.8	2
0	9068	9.8	2
0	9138	9.85	2
0	9139	9.85	2
0	9140	9.85	2
0	9141	9.85	2
0	9190	9.9	2
0	9191	9.9	2
0	9192	9.9	2
0	9193	9.9	2
0	9194	9.9	2
0	9195	9.9	2
0	9196	9.9	2
0	9197	9.9	2
0	9261	9.95	2
0	9262	9.95	2
0	9263	9.95	2
0	9264	9.95	2
0	9323	10	2
0	9324	10	2
0	9325	10	2
0	9326	10	2
0	9327	10	2
0	9328	10	2
0	9329	10	2
0	9330	10	2
0	9389	10.05	2
0	9390	10.05	2
0	9391	10.05	2
0	9392	10.05	2
0	9433	10.1	2
0	9434	10.1	2
0	9435	10.1	2
0	9436	10.1	2
0	9437	10.1	2
0	9438	10.1	2
0	9439	10.1	2
0	9440	10.1	2
0	9495	10.15	2
0	9496	10.15	2
0	9497	10.15	2
0	9498	10.15	2
0	9529	10.2	2
0	9530	10.2	2
0	9531	10.2	2
0	9532	10.2	2
0	9533	10.2	2
0	9534	10.2	2
0	9535	10.2	2
0	9536	10.2	2
0	9579	10.25	2
0	9580	10.25	2
0	9581	10.25	2
0	9582	10.25	2
0	9641	10.3	2
0	9642	10.3	2
0	9643	10.3	2
0	9644	10.3	2
0	9645	10.3	2
0	9646	10.3	2
0	9647	10.3	2
0	9648	10.3	2
0	9696	10.35	2
0	9697	10.35	2
0	9698	10.35	2
0	9699	10.35	2
0	9737	10.4	2
0	9738	10.4	2
0	9739	10.4	2
0	9740	10.4	2
0	9741	10.4	2
0	9742	10.4	2
0	9743	10.4	2
0	9744	10.4	2
0	9789	10.45	2
0	9790	10.45	2
0	9791	10.45	2
0	9792	10.45	2
0	9817	10.5	2
0	9818	10.5	2
0	9819	10.5	2
0	9820	10.5	2
0	9821	10.5	2
0	9822	10.5	2
0	9823	10.5	2
0	9824	10.5	2
0	9867	10.55	2
0	9868	10.55	2
0	9869	10.55	2
0	9870	10.55	2
0	9916	10.6	2
0	9917	10.6	2
0	9918	10.6	2
0	9919	10.6	2
0	9920	10.6	2
0	9921	10.6	2
0	9922	10.6	2
0	9923	10.6	2
0	9967	10.65	2
0	9968	10.65	2
0	9969	10.65	2
0	9970	10.65	2
0	9997	10.7	2
0	9998	10.7	2
0	9999	10.7	2
0	10000	10.7	2
0	10001	10.7	2
0	10002	10.7	2
0	10003	10.7	2
0	10004	10.7	2
0	10025	10.75	2
0	10026	10.75	2
0	10027	10.75	2
0	10028	10.75	2
0	10041	10.8	2
0	10042	10.8	2
0	10043	10.8	2
0	10044	10.8	2
0	10045	10.8	2
0	10046	10.8	2
0	10047	10.8	2
0	10048	10.8	2
0	10138	10.85	2
0	10139	10.85	2
0	10140	10.85	2
0	10141	10.85	2
0	10178	10.9	2
0	10179	10.9	2
0	10180	10.9	2
0	10181	10.9	2
0	10182	10.9	2
0	10183	10.9	2
0	10184	10.9	2
0	10185	10.9	2
0	10213	10.95	2
0	10214	10.95	2
0	10215	10.95	2
0	10216	10.95	2
0	10261	11	2
0	10262	11	2
0	10263	11	2
0	10264	11	2
0	10265	11	2
0	10266	11	2
0	10267	11	2
0	10268	11	2
0	10317	11.05	2
0	10318	11.05	2
0	10319	11.05	2
0	10320	11.05	2
0	10372	11.1	2
0	10373	11.1	2
0	10374	11.1	2
0	10375	11.1	2
0	10376	11.1	2
0	10377	11.1	2
0	10378	11.1	2
0	10379	11.1	2
0	10421	11.15	2
0	10422	11.15	2
0	10423	11.15	2
0	10424	11.15	2
0	10437	11.2	2
0	10438	11.2	2
0	10439	11.2	2
0	10440	11.2	2
0	10441	11.2	2
0	10442	11.2	2
0	10443	11.2	2
0	10444	11.2	2
0	10465	11.25	2
0	10466	11.25	2
0	10467	11.25	2
0	10468	11.25	2
0	10481	11.3	2
0	10482	11.3	2
0	10483	11.3	2
0	10484	11.3	2
0	10485	11.3	2
0	10486	11.3	2
0	10487	11.3	2
0	10488	11.3	2
0	10523	11.35	2
0	10524	11.35	2
0	10525	11.35	2
0	10526	11.35	2
0	10553	11.4	2
0	10554	11.4	2
0	10555	11.4	2
0	10556	11.4	2
0	10557	11.4	2
0	10558	11.4	2
0	10559	11.4	2
0	10560	11.4	2
0	10581	11.45	2
0	10582	11.45	2
0	10583	11.45	2
0	10584	11.45	2
0	10683	11.5	2
0	10684	11.5	2
0	10685	11.5	2
0	10686	11.5	2
0	10687	11.5	2
0	10688	11.5	2
0	10689	11.5	2
0	10690	11.5	2
0	10739	11.55	2
0	10740	11.55	2
0	10741	11.55	2
0	10742	11.55	2
0	10785	11.6	2
0	10786	11.6	2
0	10787	11.6	2
0	10788	11.6	2
0	10789	11.6	2
0	10790	11.6	2
0	10791	11.6	2
0	10792	11.6	2
0	10844	11.65	2
0	10845	11.65	2
0	10846	11.65	2
0	10847	11.65	2
0	10879	11.7	2
0	10880	11.7	2
0	10881	11.7	2
0	10882	11.7	2
0	10883	11.7	2
0	10884	11.7	2
0	10885	11.7	2
0	10886	11.7	2
0	10934	11.75	2
0	10935	11.75	2
0	10936	11.75	2
0	10937	11.75	2
0	10975	11.8	2
0	10976	11.8	2
0	10977	11.8	2
0	10978	11.8	2
0	10979	11.8	2
0	10980	11.8	2
0	10981	11.8	2
0	10982	11.8	2
0	11015	11.85	2
0	11016	11.85	2
0	11017	11.85	2
0	11018	11.85	2
0	11041	11.9	2
0	11042	11.9	2
0	11043	11.9	2
0	11044	11.9	2
0	11045	11.9	2
0	11046	11.9	2
0	11047	11.9	2
0	11048	11.9	2
0	11079	11.95	2
0	11080	11.95	2
0	11081	11.95	2
0	11082	11.95	2
0	11095	12	2
0	11096	12	2
0	11097	12	2
0	11098	12	2
0	11099	12	2
0	11100	12	2
0	11101	12	2
0	11102	12	2
0	11126	12.05	2
0	11127	12.05	2
0	11128	12.05	2
0	11129	12.05	2
0	11191	12.1	2
0	11192	12.1	2
0	11193	12.1	2
0	11194	12.1	2
0	11195	12.1	2
0	11196	12.1	2
0	11197	12.1	2
0	11198	12.1	2
0	11223	12.15	2
0	11224	12.15	2
0	11225	12.15	2
0	11226	12.15	2
0	11242	12.2	2
0	11243	12.2	2
0	11244	12.2	2
0	11245	12.2	2
0	11246	12.2	2
0	11247	12.2	2
0	11248	12.2	2
0	11249	12.2	2
0	11297	12.25	2
0	11298	12.25	2
0	11299	12.25	2
0	11300	12.25	2
0	11313	12.3	2
0	11314	12.3	2
0	11315	12.3	2
0	11316	12.3	2
0	11317	12.3	2
0	11318	12.3	2
0	11319	12.3	2
0	11320	12.3	2
0	11341	12.35	2
0	11342	12.35	2
0	11343	12.35	2
0	11344	12.35	2
0	11357	12.4	2
0	11358	12.4	2
0	11359	12.4	2
0	11360	12.4	2
0	11361	12.4	2
0	11362	12.4	2
0	11363	12.4	2
0	11364	12.4	2
0	11399	12.45	2
0	11400	12.45	2
0	11401	12.45	2
0	11402	12.45	2
0	11425	12.5	2
0	11426	12.5	2
0	11427	12.5	2
0	11428	12.5	2
0	11429	12.5	2
0	11430	12.5	2
0	11431	12.5	2
0	11432	12.5	2
0	11453	12.55	2
0	11454	12.55	2
0	11455	12.55	2
0	11456	12.55	2
0	11536	12.6	2
0	11537	12.6	2
0	11538	12.6	2
0	11539	12.6	2
0	11540	12.6	2
0	11541	12.6	2
0	11542	12.6	2
0	11543	12.6	2
0	11585	12.65	2
0	11586	12.65	2
0	11587	12.65	2
0	11588	12.65	2
0	11623	12.7	2
0	11624	12.7	2
0	11625	12.7	2
0	11626	12.7	2
0	11627	12.7	2
0	11628	12.7	2
0	11629	12.7	2
0	11630	12.7	2
0	11690	12.75	2
0	11691	12.75	2
0	11692	12.75	2
0	11693	12.75	2
0	11725	12.8	2
0	11726	12.8	2
0	11727	12.8	2
0	11728	12.8	2
0	11729	12.8	2
0	11730	12.8	2
0	11731	12.8	2
0	11732	12.8	2
0	11771	12.85	2
0	11772	12.85	2
0	11773	12.85	2
0	11774	12.85	2
0	11827	12.9	2
0	11828	12.9	2
0	11829	12.9	2
0	11830	12.9	2
0	11831	12.9	2
0	11832	12.9	2
0	11833	12.9	2
0	11834	12.9	2
0	11856	12.95	2
0	11857	12.95	2
0	11858	12.95	2
0	11859	12.95	2
0	11886	13	2
0	11887	13	2
0	11888	13	2
0	11889	13	2
0	11890	13	2
0	11891	13	2
0	11892	13	2
0	11893	13	2
0	11914	13.05	2
0	11915	13.05	2
0	11916	13.05	2
0	11917	13.05	2
0	11930	13.1	2
0	11931	13.1	2
0	11932	13.1	2
0	11933	13.1	2
0	11934	13.1	2
0	11935	13.1	2
0	11936	13.1	2
0	11937	13.1	2
0	12007	13.15	2
0	12008	13.15	2
0	12009	13.15	2
0	12010	13.15	2
0	12051	13.2	2
0	12052	13.2	2
0	12053	13.2	2
0	12054	13.2	2
0	12055	13.2	2
0	12056	13.2	2
0	12057	13.2	2
0	12058	13.2	2
0	12109	13.25	2
0	12110	13.25	2
0	12111	13.25	2
0	12112	13.25	2
0	12155	13.3	2
0	12156	13.3	2
0	12157	13.3	2
0	12158	13.3	2
0	12159	13.3	2
0	12160	13.3	2
0	12161	13.3	2
0	12162	13.3	2
0	12183	13.35	2
0	12184	13.35	2
0	12185	13.35	2
0	12186	13.35	2
0	12199	13.4	2
0	12200	13.4	2
0	12201	13.4	2
0	12202	13.4	2
0	12203	13.4	2
0	12204	13.4	2
0	12205	13.4	2
0	12206	13.4	2
0	12227	13.45	2
0	12228	13.45	2
0	12229	13.45	2
0	12230	13.45	2
0	12246	13.5	2
0	12247	13.5	2
0	12248	13.5	2
0	12249	13.5	2
0	12250	13.5	2
0	12251	13.5	2
0	12252	13.5	2
0	12253	13.5	2
0	12284	13.55	2
0	12285	13.55	2
0	12286	13.55	2
0	12287	13.55	2
0	12300	13.6	2
0	12301	13.6	2
0	12302	13.6	2
0	12303	13.6	2
0	12304	13.6	2
0	12305	13.6	2
0	12306	13.6	2
0	12307	13.6	2
0	12384	13.65	2
0	12385	13.65	2
0	12386	13.65	2
0	12387	13.65	2
0	12458	13.7	2
0	12459	13.7	2
0	12460	13.7	2
0	12461	13.7	2
0	12462	13.7	2
0	12463	13.7	2
0	12464	13.7	2
0	12465	13.7	2
0	12515	13.75	2
0	12516	13.75	2
0	12517	13.75	2
0	12518	13.75	2
0	12553	13.8	2
0	12554	13.8	2
0	12555	13.8	2
0	12556	13.8	2
0	12557	13.8	2
0	12558	13.8	2
0	12559	13.8	2
0	12560	13.8	2
0	12591	13.85	2
0	12592	13.85	2
0	12593	13.85	2
0	12594	13.85	2
0	12607	13.9	2
0	12608	13.9	2
0	12609	13.9	2
0	12610	13.9	2
0	12611	13.9	2
0	12612	13.9	2
0	12613	13.9	2
0	12614	13.9	2
0	12635	13.95	2
0	12636	13.95	2
0	12637	13.95	2
0	12638	13.95	2
0	12651	14	2
0	12652	14	2
0	12653	14	2
0	12654	14	2
0	12655	14	2
0	12656	14	2
0	12657	14	2
0	12658	14	2
0	12693	14.05	2
0	12694	14.05	2
0	12695	14.05	2
0	12696	14.05	2
0	12726	14.1	2
0	12727	14.1	2
0	12728	14.1	2
0	12729	14.1	2
0	12730	14.1	2
0	12731	14.1	2
0	12732	14.1	2
0	12733	14.1	2
0	12754	14.15	2
0	12755	14.15	2
0	12756	14.15	2
0	12757	14.15	2
0	12825	14.2	2
0	12826	14.2	2
0	12827	14.2	2
0	12828	14.2	2
0	12829	14.2	2
0	12830	14.2	2
0	12831	14.2	2
0	12832	14.2	2
0	12883	14.25	2
0	12884	14.25	2
0	12885	14.25	2
0	12886	14.25	2
0	12914	14.3	2
0	12915	14.3	2
0	12916	14.3	2
0	12917	14.3	2
0	12918	14.3	2
0	12919	14.3	2
0	12920	14.3	2
0	12921	14.3	2
0	13035	14.35	2
0	13036	14.35	2
0	13037	14.35	2
0	13038	14.35	2
0	13075	14.4	2
0	13076	14.4	2
0	13077	14.4	2
0	13078	14.4	2
0	13079	14.4	2
0	13080	14.4	2
0	13081	14.4	2
0	13082	14.4	2
0	13113	14.45	2
0	13114	14.45	2
0	13115	14.45	2
0	13116	14.45	2
0	13139	14.5	2
0	13140	14.5	2
0	13141	14.5	2
0	13142	14.5	2
0	13143	14.5	2
0	13144	14.5	2
0	13145	14.5	2
0	13146	14.5	2
0	13198	14.55	2
0	13199	14.55	2
0	13200	14.55	2
0	13201	14.55	2
0	13255	14.6	2
0	13256	14.6	2
0	13257	14.6	2
0	13258	14.6	2
0	13259	14.6	2
0	13260	14.6	2
0	13261	14.6	2
0	13262	14.6	2
0	13305	14.65	2
0	13306	14.65	2
0	13307	14.65	2
0	13308	14.65	2
0	13342	14.7	2
0	13343	14.7	2
0	13344	14.7	2
0	13345	14.7	2
0	13346	14.7	2
0	13347	14.7	2
0	13348	14.7	2
0	13349	14.7	2
0	13429	14.75	2
0	13430	14.75	2
0	13431	14.75	2
0	13432	14.75	2
0	13459	14.8	2
0	13460	14.8	2
0	13461	14.8	2
0	13462	14.8	2
0	13463	14.8	2
0	13464	14.8	2
0	13465	14.8	2
0	13466	14.8	2
0	13487	14.85	2
0	13488	14.85	2
0	13489	14.85	2
0	13490	14.85	2
0	13506	14.9	2
0	13507	14.9	2
0	13508	14.9	2
0	13509	14.9	2
0	13510	14.9	2
0	13511	14.9	2
0	13512	14.9	2
0	13513	14.9	2
0	13534	14.95	2
0	13535	14.95	2
0	13536	14.95	2
0	13537	14.95	2
0	13550	15	2
0	13551	15	2
0	13552	15	2
0	13553	15	2
0	13554	15	2
0	13555	15	2
0	13556	15	2
0	13557	15	2
0	13578	15.05	2
0	13579	15.05	2
0	13580	15.05	2
0	13581	15.05	2
0	13594	15.1	2
0	13595	15.1	2
0	13596	15.1	2
0	13597	15.1	2
0	13598	15.1	2
0	13599	15.1	2
0	13600	15.1	2
0	13601	15.1	2
0	13636	15.15	2
0	13637	15.15	2
0	13638	15.15	2
0	13639	15.15	2
0	13652	15.2	2
0	13653	15.2	2
0	13654	15.2	2
0	13655	15.2	2
0	13656	15.2	2
0	13657	15.2	2
0	13658	15.2	2
0	13659	15.2	2
0	13680	15.25	2
0	13681	15.25	2
0	13682	15.25	2
0	13683	15.25	2
0	13713	15.3	2
0	13714	15.3	2
0	13715	15.3	2
0	13716	15.3	2
0	13717	15.3	2
0	13718	15.3	2
0	13719	15.3	2
0	13720	15.3	2
0	13741	15.35	2
0	13742	15.35	2
0	13743	15.35	2
0	13744	15.35	2
0	13757	15.4	2
0	13758	15.4	2
0	13759	15.4	2
0	13760	15.4	2
0	13761	15.4	2
0	13762	15.4	2
0	13763	15.4	2
0	13764	15.4	2
0	13788	15.45	2
0	13789	15.45	2
0	13790	15.45	2
0	13791	15.45	2
0	13804	15.5	2
0	13805	15.5	2
0	13806	15.5	2
0	13807	15.5	2
0	13808	15.5	2
0	13809	15.5	2
0	13810	15.5	2
0	13811	15.5	2
0	13832	15.55	2
0	13833	15.55	2
0	13834	15.55	2
0	13835	15.55	2
0	13848	15.6	2
0	13849	15.6	2
0	13850	15.6	2
0	13851	15.6	2
0	13852	15.6	2
0	13853	15.6	2
0	13854	15.6	2
0	13855	15.6	2
0	13876	15.65	2
0	13877	15.65	2
0	13878	15.65	2
0	13879	15.65	2
0	13902	15.7	2
0	13903	15.7	2
0	13904	15.7	2
0	13905	15.7	2
0	13906	15.7	2
0	13907	15.7	2
0	13908	15.7	2
0	13909	15.7	2
0	13930	15.75	2
0	13931	15.75	2
0	13932	15.75	2
0	13933	15.75	2
0	13946	15.8	2
0	13947	15.8	2
0	13948	15.8	2
0	13949	15.8	2
0	13950	15.8	2
0	13951	15.8	2
0	13952	15.8	2
0	13953	15.8	2
0	13977	15.85	2
0	13978	15.85	2
0	13979	15.85	2
0	13980	15.85	2
0	13993	15.9	2
0	13994	15.9	2
0	13995	15.9	2
0	13996	15.9	2
0	13997	15.9	2
0	13998	15.9	2
0	13999	15.9	2
0	14000	15.9	2
0	14021	15.95	2
0	14022	15.95	2
0	14023	15.95	2
0	14024	15.95	2
0	14037	16	2
0	14038	16	2
0	14039	16	2
0	14040	16	2
0	14041	16	2
0	14042	16	2
0	14043	16	2
0	14044	16	2
0	14065	16.05	2
0	14066	16.05	2
0	14067	16.05	2
0	14068	16.05	2
0	14081	16.1	2
0	14082	16.1	2
0	14083	16.1	2
0	14084	16.1	2
0	14085	16.1	2
0	14086	16.1	2
0	14087	16.1	2
0	14088	16.1	2
0	14109	16.15	2
0	14110	16.15	2
0	14111	16.15	2
0	14112	16.15	2
0	14125	16.2	2
0	14126	16.2	2
0	14127	16.2	2
0	14128	16.2	2
0	14129	16.2	2
0	14130	16.2	2
0	14131	16.2	2
0	14132	16.2	2
0	14153	16.25	2
0	14154	16.25	2
0	14155	16.25	2
0	14156	16.25	2
0	14169	16.3	2
0	14170	16.3	2
0	14171	16.3	2
0	14172	16.3	2
0	14173	16.3	2
0	14174	16.3	2
0	14175	16.3	2
0	14176	16.3	2
0	14200	16.35	2
0	14201	16.35	2
0	14202	16.35	2
0	14203	16.35	2
0	14216	16.4	2
0	14217	16.4	2
0	14218	16.4	2
0	14219	16.4	2
0	14220	16.4	2
0	14221	16.4	2
0	14222	16.4	2
0	14223	16.4	2
0	14244	16.45	2
0	14245	16.45	2
0	14246	16.45	2
0	14247	16.45	2
0	14323	16.5	2
0	14324	16.5	2
0	14325	16.5	2
0	14326	16.5	2
0	14327	16.5	2
0	14328	16.5	2
0	14329	16.5	2
0	14330	16.5	2
0	14370	16.55	2
0	14371	16.55	2
0	14372	16.55	2
0	14373	16.55	2
0	14389	16.6	2
0	14390	16.6	2
0	14391	16.6	2
0	14392	16.6	2
0	14393	16.6	2
0	14394	16.6	2
0	14395	16.6	2
0	14396	16.6	2
0	14442	16.65	2
0	14443	16.65	2
0	14444	16.65	2
0	14445	16.65	2
0	14471	16.7	2
0	14472	16.7	2
0	14473	16.7	2
0	14474	16.7	2
0	14475	16.7	2
0	14476	16.7	2
0	14477	16.7	2
0	14478	16.7	2
0	14538	16.75	2
0	14539	16.75	2
0	14540	16.75	2
0	14541	16.75	2
0	14554	16.8	2
0	14555	16.8	2
0	14556	16.8	2
0	14557	16.8	2
0	14558	16.8	2
0	14559	16.8	2
0	14560	16.8	2
0	14561	16.8	2
0	14596	16.85	2
0	14597	16.85	2
0	14598	16.85	2
0	14599	16.85	2
0	14618	16.9	2
0	14619	16.9	2
0	14620	16.9	2
0	14621	16.9	2
0	14622	16.9	2
0	14623	16.9	2
0	14624	16.9	2
0	14625	16.9	2
0	14646	16.95	2
0	14647	16.95	2
0	14648	16.95	2
0	14649	16.95	2
0	14705	17	2
0	14706	17	2
0	14707	17	2
0	14708	17	2
0	14709	17	2
0	14710	17	2
0	14711	17	2
0	14712	17	2
0	14742	17.05	2
0	14743	17.05	2
0	14744	17.05	2
0	14745	17.05	2
0	14774	17.1	2
0	14775	17.1	2
0	14776	17.1	2
0	14777	17.1	2
0	14778	17.1	2
0	14779	17.1	2
0	14780	17.1	2
0	14781	17.1	2
0	14802	17.15	2
0	14803	17.15	2
0	14804	17.15	2
0	14805	17.15	2
0	14818	17.2	2
0	14819	17.2	2
0	14820	17.2	2
0	14821	17.2	2
0	14822	17.2	2
0	14823	17.2	2
0	14824	17.2	2
0	14825	17.2	2
0	14846	17.25	2
0	14847	17.25	2
0	14848	17.25	2
0	14849	17.25	2
0	14876	17.3	2
0	14877	17.3	2
0	14878	17.3	2
0	14879	17.3	2
0	14880	17.3	2
0	14881	17.3	2
0	14882	17.3	2
0	14883	17.3	2
0	14904	17.35	2
0	14905	17.35	2
0	14906	17.35	2
0	14907	17.35	2
0	14923	17.4	2
0	14924	17.4	2
0	14925	17.4	2
0	14926	17.4	2
0	14927	17.4	2
0	14928	17.4	2
0	14929	17.4	2
0	14930	17.4	2
0	15040	17.45	2
0	15041	17.45	2
0	15042	17.45	2
0	15043	17.45	2
0	15060	17.5	2
0	15061	17.5	2
0	15062	17.5	2
0	15063	17.5	2
0	15064	17.5	2
0	15065	17.5	2
0	15066	17.5	2
0	15067	17.5	2
0	15106	17.55	2
0	15107	17.55	2
0	15108	17.55	2
0	15109	17.55	2
0	15132	17.6	2
0	15133	17.6	2
0	15134	17.6	2
0	15135	17.6	2
0	15136	17.6	2
0	15137	17.6	2
0	15138	17.6	2
0	15139	17.6	2
0	15182	17.65	2
0	15183	17.65	2
0	15184	17.65	2
0	15185	17.65	2
0	15234	17.7	2
0	15235	17.7	2
0	15236	17.7	2
0	15237	17.7	2
0	15238	17.7	2
0	15239	17.7	2
0	15240	17.7	2
0	15241	17.7	2
0	15293	17.75	2
0	15294	17.75	2
0	15295	17.75	2
0	15296	17.75	2
0	15321	17.8	2
0	15322	17.8	2
0	15323	17.8	2
0	15324	17.8	2
0	15325	17.8	2
0	15326	17.8	2
0	15327	17.8	2
0	15328	17.8	2
0	15372	17.85	2
0	15373	17.85	2
0	15374	17.85	2
0	15375	17.85	2
0	15388	17.9	2
0	15389	17.9	2
0	15390	17.9	2
0	15391	17.9	2
0	15392	17.9	2
0	15393	17.9	2
0	15394	17.9	2
0	15395	17.9	2
0	15416	17.95	2
0	15417	17.95	2
0	15418	17.95	2
0	15419	17.95	2
0	15432	18	2
0	15433	18	2
0	15434	18	2
0	15435	18	2
0	15436	18	2
0	15437	18	2
0	15438	18	2
0	15439	18	2
0	15460	18.05	2
0	15461	18.05	2
0	15462	18.05	2
0	15463	18.05	2
0	15490	18.1	2
0	15491	18.1	2
0	15492	18.1	2
0	15493	18.1	2
0	15494	18.1	2
0	15495	18.1	2
0	15496	18.1	2
0	15497	18.1	2
0	15518	18.15	2
0	15519	18.15	2
0	15520	18.15	2
0	15521	18.15	2
0	15534	18.2	2
0	15535	18.2	2
0	15536	18.2	2
0	15537	18.2	2
0	15538	18.2	2
0	15539	18.2	2
0	15540	18.2	2
0	15541	18.2	2
0	15572	18.25	2
0	15573	18.25	2
0	15574	18.25	2
0	15575	18.25	2
0	15588	18.3	2
0	15589	18.3	2
0	15590	18.3	2
0	15591	18.3	2
0	15592	18.3	2
0	15593	18.3	2
0	15594	18.3	2
0	15595	18.3	2
0	15626	18.35	2
0	15627	18.35	2
0	15628	18.35	2
0	15629	18.35	2
0	15642	18.4	2
0	15643	18.4	2
0	15644	18.4	2
0	15645	18.4	2
0	15646	18.4	2
0	15647	18.4	2
0	15648	18.4	2
0	15649	18.4	2
0	15670	18.45	2
0	15671	18.45	2
0	15672	18.45	2
0	15673	18.45	2
0	15689	18.5	2
0	15690	18.5	2
0	15691	18.5	2
0	15692	18.5	2
0	15693	18.5	2
0	15694	18.5	2
0	15695	18.5	2
0	15696	18.5	2
0	15717	18.55	2
0	15718	18.55	2
0	15719	18.55	2
0	15720	18.55	2
0	15736	18.6	2
0	15737	18.6	2
0	15738	18.6	2
0	15739	18.6	2
0	15740	18.6	2
0	15741	18.6	2
0	15742	18.6	2
0	15743	18.6	2
0	15767	18.65	2
0	15768	18.65	2
0	15769	18.65	2
0	15770	18.65	2
0	15783	18.7	2
0	15784	18.7	2
0	15785	18.7	2
0	15786	18.7	2
0	15787	18.7	2
0	15788	18.7	2
0	15789	18.7	2
0	15790	18.7	2
0	15811	18.75	2
0	15812	18.75	2
0	15813	18.75	2
0	15814	18.75	2
0	15827	18.8	2
0	15828	18.8	2
0	15829	18.8	2
0	15830	18.8	2
0	15831	18.8	2
0	15832	18.8	2
0	15833	18.8	2
0	15834	18.8	2
0	15855	18.85	2
0	15856	18.85	2
0	15857	18.85	2
0	15858	18.85	2
0	15871	18.9	2
0	15872	18.9	2
0	15873	18.9	2
0	15874	18.9	2
0	15875	18.9	2
0	15876	18.9	2
0	15877	18.9	2
0	15878	18.9	2
0	15899	18.95	2
0	15900	18.95	2
0	15901	18.95	2
0	15902	18.95	2
0	15929	19	2
0	15930	19	2
0	15931	19	2
0	15932	19	2
0	15933	19	2
0	15934	19	2
0	15935	19	2
0	15936	19	2
0	15967	19.05	2
0	15968	19.05	2
0	15969	19.05	2
0	15970	19.05	2
0	15983	19.1	2
0	15984	19.1	2
0	15985	19.1	2
0	15986	19.1	2
0	15987	19.1	2
0	15988	19.1	2
0	15989	19.1	2
0	15990	19.1	2
0	16052	19.15	2
0	16053	19.15	2
0	16054	19.15	2
0	16055	19.15	2
0	16103	19.2	2
0	16104	19.2	2
0	16105	19.2	2
0	16106	19.2	2
0	16107	19.2	2
0	16108	19.2	2
0	16109	19.2	2
0	16110	19.2	2
0	16131	19.25	2
0	16132	19.25	2
0	16133	19.25	2
0	16134	19.25	2
0	16147	19.3	2
0	16148	19.3	2
0	16149	19.3	2
0	16150	19.3	2
0	16151	19.3	2
0	16152	19.3	2
0	16153	19.3	2
0	16154	19.3	2
0	16175	19.35	2
0	16176	19.35	2
0	16177	19.35	2
0	16178	19.35	2
0	16191	19.4	2
0	16192	19.4	2
0	16193	19.4	2
0	16194	19.4	2
0	16195	19.4	2
0	16196	19.4	2
0	16197	19.4	2
0	16198	19.4	2
0	16219	19.45	2
0	16220	19.45	2
0	16221	19.45	2
0	16222	19.45	2
0	16235	19.5	2
0	16236	19.5	2
0	16237	19.5	2
0	16238	19.5	2
0	16239	19.5	2
0	16240	19.5	2
0	16241	19.5	2
0	16242	19.5	2
0	16277	19.55	2
0	16278	19.55	2
0	16279	19.55	2
0	16280	19.55	2
0	16339	19.6	2
0	16340	19.6	2
0	16341	19.6	2
0	16342	19.6	2
0	16343	19.6	2
0	16344	19.6	2
0	16345	19.6	2
0	16346	19.6	2
0	16385	19.65	2
0	16386	19.65	2
0	16387	19.65	2
0	16388	19.65	2
0	16431	19.7	2
0	16432	19.7	2
0	16433	19.7	2
0	16434	19.7	2
0	16435	19.7	2
0	16436	19.7	2
0	16437	19.7	2
0	16438	19.7	2
0	16487	19.75	2
0	16488	19.75	2
0	16489	19.75	2
0	16490	19.75	2
0	16507	19.8	2
0	16508	19.8	2
0	16509	19.8	2
0	16510	19.8	2
0	16511	19.8	2
0	16512	19.8	2
0	16513	19.8	2
0	16514	19.8	2
0	16549	19.85	2
0	16550	19.85	2
0	16551	19.85	2
0	16552	19.85	2
0	16565	19.9	2
0	16566	19.9	2
0	16567	19.9	2
0	16568	19.9	2
0	16569	19.9	2
0	16570	19.9	2
0	16571	19.9	2
0	16572	19.9	2
0	16596	19.95	2
0	16597	19.95	2
0	16598	19.95	2
0	16599	19.95	2
0	16615	20	2
0	16616	20	2
0	16617	20	2
0	16618	20	2
0	16619	20	2
0	16620	20	2
0	16621	20	2
0	16622	20	2
0	16643	20.05	2
0	16644	20.05	2
0	16645	20.05	2
0	16646	20.05	2
0	16662	20.1	2
0	16663	20.1	2
0	16664	20.1	2
0	16665	20.1	2
0	16666	20.1	2
0	16667	20.1	2
0	16668	20.1	2
0	16669	20.1	2
0	16693	20.15	2
0	16694	20.15	2
0	16695	20.15	2
0	16696	20.15	2
0	16709	20.2	2
0	16710	20.2	2
0	16711	20.2	2
0	16712	20.2	2
0	16713	20.2	2
0	16714	20.2	2
0	16715	20.2	2
0	16716	20.2	2
0	16737	20.25	2
0	16738	20.25	2
0	16739	20.25	2
0	16740	20.25	2
0	16753	20.3	2
0	16754	20.3	2
0	16755	20.3	2
0	16756	20.3	2
0	16757	20.3	2
0	16758	20.3	2
0	16759	20.3	2
0	16760	20.3	2
0	16781	20.35	2
0	16782	20.35	2
0	16783	20.35	2
0	16784	20.35	2
0	16797	20.4	2
0	16798	20.4	2
0	16799	20.4	2
0	16800	20.4	2
0	16801	20.4	2
0	16802	20.4	2
0	16803	20.4	2
0	16804	20.4	2
0	16825	20.45	2
0	16826	20.45	2
0	16827	20.45	2
0	16828	20.45	2
0	16841	20.5	2
0	16842	20.5	2
0	16843	20.5	2
0	16844	20.5	2
0	16845	20.5	2
0	16846	20.5	2
0	16847	20.5	2
0	16848	20.5	2
0	16869	20.55	2
0	16870	20.55	2
0	16871	20.55	2
0	16872	20.55	2
0	16885	20.6	2
0	16886	20.6	2
0	16887	20.6	2
0	16888	20.6	2
0	16889	20.6	2
0	16890	20.6	2
0	16891	20.6	2
0	16892	20.6	2
0	16913	20.65	2
0	16914	20.65	2
0	16915	20.65	2
0	16916	20.65	2
0	16929	20.7	2
0	16930	20.7	2
0	16931	20.7	2
0	16932	20.7	2
0	16933	20.7	2
0	16934	20.7	2
0	16935	20.7	2
0	16936	20.7	2
0	16957	20.75	2
0	16958	20.75	2
0	16959	20.75	2
0	16960	20.75	2
0	16973	20.8	2
0	16974	20.8	2
0	16975	20.8	2
0	16976	20.8	2
0	16977	20.8	2
0	16978	20.8	2
0	16979	20.8	2
0	16980	20.8	2
0	17001	20.85	2
0	17002	20.85	2
0	17003	20.85	2
0	17004	20.85	2
0	17017	20.9	2
0	17018	20.9	2
0	17019	20.9	2
0	17020	20.9	2
0	17021	20.9	2
0	17022	20.9	2
0	17023	20.9	2
0	17024	20.9	2
0	17045	20.95	2
0	17046	20.95	2
0	17047	20.95	2
0	17048	20.95	2
0	17061	21	2
0	17062	21	2
0	17063	21	2
0	17064	21	2
0	17065	21	2
0	17066	21	2
0	17067	21	2
0	17068	21	2
0	17089	21.05	2
0	17090	21.05	2
0	17091	21.05	2
0	17092	21.05	2
0	17105	21.1	2
0	17106	21.1	2
0	17107	21.1	2
0	17108	21.1	2
0	17109	21.1	2
0	17110	21.1	2
0	17111	21.1	2
0	17112	21.1	2
0	17136	21.15	2
0	17137	21.15	2
0	17138	21.15	2
0	17139	21.15	2
0	17152	21.2	2
0	17153	21.2	2
0	17154	21.2	2
0	17155	21.2	2
0	17156	21.2	2
0	17157	21.2	2
0	17158	21.2	2
0	17159	21.2	2
0	17180	21.25	2
0	17181	21.25	2
0	17182	21.25	2
0	17183	21.25	2
0	17216	21.3	2
0	17217	21.3	2
0	17218	21.3	2
0	17219	21.3	2
0	17220	21.3	2
0	17221	21.3	2
0	17222	21.3	2
0	17223	21.3	2
0	17247	21.35	2
0	17248	21.35	2
0	17249	21.35	2
0	17250	21.35	2
0	17263	21.4	2
0	17264	21.4	2
0	17265	21.4	2
0	17266	21.4	2
0	17267	21.4	2
0	17268	21.4	2
0	17269	21.4	2
0	17270	21.4	2
0	17301	21.45	2
0	17302	21.45	2
0	17303	21.45	2
0	17304	21.45	2
0	17317	21.5	2
0	17318	21.5	2
0	17319	21.5	2
0	17320	21.5	2
0	17321	21.5	2
0	17322	21.5	2
0	17323	21.5	2
0	17324	21.5	2
0	17359	21.55	2
0	17360	21.55	2
0	17361	21.55	2
0	17362	21.55	2
0	17378	21.6	2
0	17379	21.6	2
0	17380	21.6	2
0	17381	21.6	2
0	17382	21.6	2
0	17383	21.6	2
0	17384	21.6	2
0	17385	21.6	2
0	17406	21.65	2
0	17407	21.65	2
0	17408	21.65	2
0	17409	21.65	2
0	17446	21.7	2
0	17447	21.7	2
0	17448	21.7	2
0	17449	21.7	2
0	17450	21.7	2
0	17451	21.7	2
0	17452	21.7	2
0	17453	21.7	2
0	17488	21.75	2
0	17489	21.75	2
0	17490	21.75	2
0	17491	21.75	2
0	17504	21.8	2
0	17505	21.8	2
0	17506	21.8	2
0	17507	21.8	2
0	17508	21.8	2
0	17509	21.8	2
0	17510	21.8	2
0	17511	21.8	2
0	17535	21.85	2
0	17536	21.85	2
0	17537	21.85	2
0	17538	21.85	2
0	17554	21.9	2
0	17555	21.9	2
0	17556	21.9	2
0	17557	21.9	2
0	17558	21.9	2
0	17559	21.9	2
0	17560	21.9	2
0	17561	21.9	2
0	17582	21.95	2
0	17583	21.95	2
0	17584	21.95	2
0	17585	21.95	2
0	17598	22	2
0	17599	22	2
0	17600	22	2
0	17601	22	2
0	17602	22	2
0	17603	22	2
0	17604	22	2
0	17605	22	2
0	17626	22.05	2
0	17627	22.05	2
0	17628	22.05	2
0	17629	22.05	2
0	17645	22.1	2
0	17646	22.1	2
0	17647	22.1	2
0	17648	22.1	2
0	17649	22.1	2
0	17650	22.1	2
0	17651	22.1	2
0	17652	22.1	2
0	17673	22.15	2
0	17674	22.15	2
0	17675	22.15	2
0	17676	22.15	2
0	17689	22.2	2
0	17690	22.2	2
0	17691	22.2	2
0	17692	22.2	2
0	17693	22.2	2
0	17694	22.2	2
0	17695	22.2	2
0	17696	22.2	2
0	17717	22.25	2
0	17718	22.25	2
0	17719	22.25	2
0	17720	22.25	2
0	17733	22.3	2
0	17734	22.3	2
0	17735	22.3	2
0	17736	22.3	2
0	17737	22.3	2
0	17738	22.3	2
0	17739	22.3	2
0	17740	22.3	2
0	17761	22.35	2
0	17762	22.35	2
0	17763	22.35	2
0	17764	22.35	2
0	17777	22.4	2
0	17778	22.4	2
0	17779	22.4	2
0	17780	22.4	2
0	17781	22.4	2
0	17782	22.4	2
0	17783	22.4	2
0	17784	22.4	2
0	17805	22.45	2
0	17806	22.45	2
0	17807	22.45	2
0	17808	22.45	2
0	17821	22.5	2
0	17822	22.5	2
0	17823	22.5	2
0	17824	22.5	2
0	17825	22.5	2
0	17826	22.5	2
0	17827	22.5	2
0	17828	22.5	2
0	17849	22.55	2
0	17850	22.55	2
0	17851	22.55	2
0	17852	22.55	2
0	17865	22.6	2
0	17866	22.6	2
0	17867	22.6	2
0	17868	22.6	2
0	17869	22.6	2
0	17870	22.6	2
0	17871	22.6	2
0	17872	22.6	2
0	17893	22.65	2
0	17894	22.65	2
0	17895	22.65	2
0	17896	22.65	2
0	17909	22.7	2
0	17910	22.7	2
0	17911	22.7	2
0	17912	22.7	2
0	17913	22.7	2
0	17914	22.7	2
0	17915	22.7	2
0	17916	22.7	2
0	17937	22.75	2
0	17938	22.75	2
0	17939	22.75	2
0	17940	22.75	2
0	17953	22.8	2
0	17954	22.8	2
0	17955	22.8	2
0	17956	22.8	2
0	17957	22.8	2
0	17958	22.8	2
0	17959	22.8	2
0	17960	22.8	2
0	17981	22.85	2
0	17982	22.85	2
0	17983	22.85	2
0	17984	22.85	2
0	17997	22.9	2
0	17998	22.9	2
0	17999	22.9	2
0	18000	22.9	2
0	18001	22.9	2
0	18002	22.9	2
0	18003	22.9	2
0	18004	22.9	2
0	18025	22.95	2
0	18026	22.95	2
0	18027	22.95	2
0	18028	22.95	2
0	18041	23	2
0	18042	23	2
0	18043	23	2
0	18044	23	2
0	18045	23	2
0	18046	23	2
0	18047	23	2
0	18048	23	2
0	18072	23.05	2
0	18073	23.05	2
0	18074	23.05	2
0	18075	23.05	2
0	18088	23.1	2
0	18089	23.1	2
0	18090	23.1	2
0	18091	23.1	2
0	18092	23.1	2
0	18093	23.1	2
0	18094	23.1	2
0	18095	23.1	2
0	18116	23.15	2
0	18117	23.15	2
0	18118	23.15	2
0	18119	23.15	2
0	18195	23.2	2
0	18196	23.2	2
0	18197	23.2	2
0	18198	23.2	2
0	18199	23.2	2
0	18200	23.2	2
0	18201	23.2	2
0	18202	23.2	2
0	18256	23.25	2
0	18257	23.25	2
0	18258	23.25	2
0	18259	23.25	2
0	18302	23.3	2
0	18303	23.3	2
0	18304	23.3	2
0	18305	23.3	2
0	18306	23.3	2
0	18307	23.3	2
0	18308	23.3	2
0	18309	23.3	2
0	18348	23.35	2
0	18349	23.35	2
0	18350	23.35	2
0	18351	23.35	2
0	18383	23.4	2
0	18384	23.4	2
0	18385	23.4	2
0	18386	23.4	2
0	18387	23.4	2
0	18388	23.4	2
0	18389	23.4	2
0	18390	23.4	2
0	18438	23.45	2
0	18439	23.45	2
0	18440	23.45	2
0	18441	23.45	2
0	18459	23.5	2
0	18460	23.5	2
0	18461	23.5	2
0	18462	23.5	2
0	18463	23.5	2
0	18464	23.5	2
0	18465	23.5	2
0	18466	23.5	2
0	18487	23.55	2
0	18488	23.55	2
0	18489	23.55	2
0	18490	23.55	2
0	18517	23.6	2
0	18518	23.6	2
0	18519	23.6	2
0	18520	23.6	2
0	18521	23.6	2
0	18522	23.6	2
0	18523	23.6	2
0	18524	23.6	2
0	18545	23.65	2
0	18546	23.65	2
0	18547	23.65	2
0	18548	23.65	2
0	18564	23.7	2
0	18565	23.7	2
0	18566	23.7	2
0	18567	23.7	2
0	18568	23.7	2
0	18569	23.7	2
0	18570	23.7	2
0	18571	23.7	2
0	18602	23.75	2
0	18603	23.75	2
0	18604	23.75	2
0	18605	23.75	2
0	18618	23.8	2
0	18619	23.8	2
0	18620	23.8	2
0	18621	23.8	2
0	18622	23.8	2
0	18623	23.8	2
0	18624	23.8	2
0	18625	23.8	2
0	18649	23.85	2
0	18650	23.85	2
0	18651	23.85	2
0	18652	23.85	2
0	18665	23.9	2
0	18666	23.9	2
0	18667	23.9	2
0	18668	23.9	2
0	18669	23.9	2
0	18670	23.9	2
0	18671	23.9	2
0	18672	23.9	2
0	18693	23.95	2
0	18694	23.95	2
0	18695	23.95	2
0	18696	23.95	2
0	18709	24	2
0	18710	24	2
0	18711	24	2
0	18712	24	2
0	18713	24	2
0	18714	24	2
0	18715	24	2
0	18716	24	2
0	18737	24.05	2
0	18738	24.05	2
0	18739	24.05	2
0	18740	24.05	2
0	18753	24.1	2
0	18754	24.1	2
0	18755	24.1	2
0	18756	24.1	2
0	18757	24.1	2
0	18758	24.1	2
0	18759	24.1	2
0	18760	24.1	2
0	18795	24.15	2
0	18796	24.15	2
0	18797	24.15	2
0	18798	24.15	2
0	18811	24.2	2
0	18812	24.2	2
0	18813	24.2	2
0	18814	24.2	2
0	18815	24.2	2
0	18816	24.2	2
0	18817	24.2	2
0	18818	24.2	2
0	18839	24.25	2
0	18840	24.25	2
0	18841	24.25	2
0	18842	24.25	2
0	18899	24.3	2
0	18900	24.3	2
0	18901	24.3	2
0	18902	24.3	2
0	18903	24.3	2
0	18904	24.3	2
0	18905	24.3	2
0	18906	24.3	2
0	18960	24.35	2
0	18961	24.35	2
0	18962	24.35	2
0	18963	24.35	2
0	18998	24.4	2
0	18999	24.4	2
0	19000	24.4	2
0	19001	24.4	2
0	19002	24.4	2
0	19003	24.4	2
0	19004	24.4	2
0	19005	24.4	2
0	19048	24.45	2
0	19049	24.45	2
0	19050	24.45	2
0	19051	24.45	2
0	19065	24.5	2
0	19066	24.5	2
0	19067	24.5	2
0	19068	24.5	2
0	19069	24.5	2
0	19070	24.5	2
0	19071	24.5	2
0	19072	24.5	2
0	19093	24.55	2
0	19094	24.55	2
0	19095	24.55	2
0	19096	24.55	2
0	19109	24.6	2
0	19110	24.6	2
0	19111	24.6	2
0	19112	24.6	2
0	19113	24.6	2
0	19114	24.6	2
0	19115	24.6	2
0	19116	24.6	2
0	19137	24.65	2
0	19138	24.65	2
0	19139	24.65	2
0	19140	24.65	2
0	19167	24.7	2
0	19168	24.7	2
0	19169	24.7	2
0	19170	24.7	2
0	19171	24.7	2
0	19172	24.7	2
0	19173	24.7	2
0	19174	24.7	2
0	19195	24.75	2
0	19196	24.75	2
0	19197	24.75	2
0	19198	24.75	2
0	19211	24.8	2
0	19212	24.8	2
0	19213	24.8	2
0	19214	24.8	2
0	19215	24.8	2
0	19216	24.8	2
0	19217	24.8	2
0	19218	24.8	2
0	19277	24.85	2
0	19278	24.85	2
0	19279	24.85	2
0	19280	24.85	2
0	19343	24.9	2
0	19344	24.9	2
0	19345	24.9	2
0	19346	24.9	2
0	19347	24.9	2
0	19348	24.9	2
0	19349	24.9	2
0	19350	24.9	2
0	19399	24.95	2
0	19400	24.95	2
0	19401	24.95	2
0	19402	24.95	2
0	19415	25	2
0	19416	25	2
0	19417	25	2
0	19418	25	2
0	19419	25	2
0	19420	25	2
0	19421	25	2
0	19422	25	2
0	19460	25.05	2
0	19461	25.05	2
0	19462	25.05	2
0	19463	25.05	2
0	19479	25.1	2
0	19480	25.1	2
0	19481	25.1	2
0	19482	25.1	2
0	19483	25.1	2
0	19484	25.1	2
0	19485	25.1	2
0	19486	25.1	2
0	19507	25.15	2
0	19508	25.15	2
0	19509	25.15	2
0	19510	25.15	2
0	19523	25.2	2
0	19524	25.2	2
0	19525	25.2	2
0	19526	25.2	2
0	19527	25.2	2
0	19528	25.2	2
0	19529	25.2	2
0	19530	25.2	2
0	19554	25.25	2
0	19555	25.25	2
0	19556	25.25	2
0	19557	25.25	2
0	19570	25.3	2
0	19571	25.3	2
0	19572	25.3	2
0	19573	25.3	2
0	19574	25.3	2
0	19575	25.3	2
0	19576	25.3	2
0	19577	25.3	2
0	19598	25.35	2
0	19599	25.35	2
0	19600	25.35	2
0	19601	25.35	2
0	19614	25.4	2
0	19615	25.4	2
0	19616	25.4	2
0	19617	25.4	2
0	19618	25.4	2
0	19619	25.4	2
0	19620	25.4	2
0	19621	25.4	2
0	19662	25.45	2
0	19663	25.45	2
0	19664	25.45	2
0	19665	25.45	2
0	19678	25.5	2
0	19679	25.5	2
0	19680	25.5	2
0	19681	25.5	2
0	19682	25.5	2
0	19683	25.5	2
0	19684	25.5	2
0	19685	25.5	2
0	19706	25.55	2
0	19707	25.55	2
0	19708	25.55	2
0	19709	25.55	2
0	19767	25.6	2
0	19768	25.6	2
0	19769	25.6	2
0	19770	25.6	2
0	19771	25.6	2
0	19772	25.6	2
0	19773	25.6	2
0	19774	25.6	2
0	19795	25.65	2
0	19796	25.65	2
0	19797	25.65	2
0	19798	25.65	2
0	19811	25.7	2
0	19812	25.7	2
0	19813	25.7	2
0	19814	25.7	2
0	19815	25.7	2
0	19816	25.7	2
0	19817	25.7	2
0	19818	25.7	2
0	19839	25.75	2
0	19840	25.75	2
0	19841	25.75	2
0	19842	25.75	2
0	19855	25.8	2
0	19856	25.8	2
0	19857	25.8	2
0	19858	25.8	2
0	19859	25.8	2
0	19860	25.8	2
0	19861	25.8	2
0	19862	25.8	2
0	19883	25.85	2
0	19884	25.85	2
0	19885	25.85	2
0	19886	25.85	2
0	19899	25.9	2
0	19900	25.9	2
0	19901	25.9	2
0	19902	25.9	2
0	19903	25.9	2
0	19904	25.9	2
0	19905	25.9	2
0	19906	25.9	2
0	19927	25.95	2
0	19928	25.95	2
0	19929	25.95	2
0	19930	25.95	2
0	19967	26	2
0	19968	26	2
0	19969	26	2
0	19970	26	2
0	19971	26	2
0	19972	26	2
0	19973	26	2
0	19974	26	2
0	19995	26.05	2
0	19996	26.05	2
0	19997	26.05	2
0	19998	26.05	2
0	20011	26.1	2
0	20012	26.1	2
0	20013	26.1	2
0	20014	26.1	2
0	20015	26.1	2
0	20016	26.1	2
0	20017	26.1	2
0	20018	26.1	2
0	20076	26.15	2
0	20077	26.15	2
0	20078	26.15	2
0	20079	26.15	2
0	20092	26.2	2
0	20093	26.2	2
0	20094	26.2	2
0	20095	26.2	2
0	20096	26.2	2
0	20097	26.2	2
0	20098	26.2	2
0	20099	26.2	2
0	20120	26.25	2
0	20121	26.25	2
0	20122	26.25	2
0	20123	26.25	2
0	20136	26.3	2
0	20137	26.3	2
0	20138	26.3	2
0	20139	26.3	2
0	20140	26.3	2
0	20141	26.3	2
0	20142	26.3	2
0	20143	26.3	2
0	20164	26.35	2
0	20165	26.35	2
0	20166	26.35	2
0	20167	26.35	2
0	20180	26.4	2
0	20181	26.4	2
0	20182	26.4	2
0	20183	26.4	2
0	20184	26.4	2
0	20185	26.4	2
0	20186	26.4	2
0	20187	26.4	2
0	20218	26.45	2
0	20219	26.45	2
0	20220	26.45	2
0	20221	26.45	2
0	20234	26.5	2
0	20235	26.5	2
0	20236	26.5	2
0	20237	26.5	2
0	20238	26.5	2
0	20239	26.5	2
0	20240	26.5	2
0	20241	26.5	2
0	20285	26.55	2
0	20286	26.55	2
0	20287	26.55	2
0	20288	26.55	2
0	20311	26.6	2
0	20312	26.6	2
0	20313	26.6	2
0	20314	26.6	2
0	20315	26.6	2
0	20316	26.6	2
0	20317	26.6	2
0	20318	26.6	2
0	20339	26.65	2
0	20340	26.65	2
0	20341	26.65	2
0	20342	26.65	2
0	20375	26.7	2
0	20376	26.7	2
0	20377	26.7	2
0	20378	26.7	2
0	20379	26.7	2
0	20380	26.7	2
0	20381	26.7	2
0	20382	26.7	2
0	20403	26.75	2
0	20404	26.75	2
0	20405	26.75	2
0	20406	26.75	2
0	20419	26.8	2
0	20420	26.8	2
0	20421	26.8	2
0	20422	26.8	2
0	20423	26.8	2
0	20424	26.8	2
0	20425	26.8	2
0	20426	26.8	2
0	20447	26.85	2
0	20448	26.85	2
0	20449	26.85	2
0	20450	26.85	2
0	20463	26.9	2
0	20464	26.9	2
0	20465	26.9	2
0	20466	26.9	2
0	20467	26.9	2
0	20468	26.9	2
0	20469	26.9	2
0	20470	26.9	2
0	20491	26.95	2
0	20492	26.95	2
0	20493	26.95	2
0	20494	26.95	2
0	20544	27	2
0	20545	27	2
0	20546	27	2
0	20547	27	2
0	20548	27	2
0	20549	27	2
0	20550	27	2
0	20551	27	2
0	20608	27.05	2
0	20609	27.05	2
0	20610	27.05	2
0	20611	27.05	2
0	20670	27.1	2
0	20671	27.1	2
0	20672	27.1	2
0	20673	27.1	2
0	20674	27.1	2
0	20675	27.1	2
0	20676	27.1	2
0	20677	27.1	2
0	20739	27.15	2
0	20740	27.15	2
0	20741	27.15	2
0	20742	27.15	2
0	20789	27.2	2
0	20790	27.2	2
0	20791	27.2	2
0	20792	27.2	2
0	20793	27.2	2
0	20794	27.2	2
0	20795	27.2	2
0	20796	27.2	2
0	20830	27.25	2
0	20831	27.25	2
0	20832	27.25	2
0	20833	27.25	2
0	20846	27.3	2
0	20847	27.3	2
0	20848	27.3	2
0	20849	27.3	2
0	20850	27.3	2
0	20851	27.3	2
0	20852	27.3	2
0	20853	27.3	2
0	20874	27.35	2
0	20875	27.35	2
0	20876	27.35	2
0	20877	27.35	2
0	20890	27.4	2
0	20891	27.4	2
0	20892	27.4	2
0	20893	27.4	2
0	20894	27.4	2
0	20895	27.4	2
0	20896	27.4	2
0	20897	27.4	2
0	20918	27.45	2
0	20919	27.45	2
0	20920	27.45	2
0	20921	27.45	2
0	20934	27.5	2
0	20935	27.5	2
0	20936	27.5	2
0	20937	27.5	2
0	20938	27.5	2
0	20939	27.5	2
0	20940	27.5	2
0	20941	27.5	2
0	20979	27.55	2
0	20980	27.55	2
0	20981	27.55	2
0	20982	27.55	2
0	20995	27.6	2
0	20996	27.6	2
0	20997	27.6	2
0	20998	27.6	2
0	20999	27.6	2
0	21000	27.6	2
0	21001	27.6	2
0	21002	27.6	2
0	21023	27.65	2
0	21024	27.65	2
0	21025	27.65	2
0	21026	27.65	2
0	21049	27.7	2
0	21050	27.7	2
0	21051	27.7	2
0	21052	27.7	2
0	21053	27.7	2
0	21054	27.7	2
0	21055	27.7	2
0	21056	27.7	2
0	21077	27.75	2
0	21078	27.75	2
0	21079	27.75	2
0	21080	27.75	2
0	21093	27.8	2
0	21094	27.8	2
0	21095	27.8	2
0	21096	27.8	2
0	21097	27.8	2
0	21098	27.8	2
0	21099	27.8	2
0	21100	27.8	2
0	21121	27.85	2
0	21122	27.85	2
0	21123	27.85	2
0	21124	27.85	2
0	21137	27.9	2
0	21138	27.9	2
0	21139	27.9	2
0	21140	27.9	2
0	21141	27.9	2
0	21142	27.9	2
0	21143	27.9	2
0	21144	27.9	2
0	21165	27.95	2
0	21166	27.95	2
0	21167	27.95	2
0	21168	27.95	2
0	21181	28	2
0	21182	28	2
0	21183	28	2
0	21184	28	2
0	21185	28	2
0	21186	28	2
0	21187	28	2
0	21188	28	2
0	21209	28.05	2
0	21210	28.05	2
0	21211	28.05	2
0	21212	28.05	2
0	21242	28.1	2
0	21243	28.1	2
0	21244	28.1	2
0	21245	28.1	2
0	21246	28.1	2
0	21247	28.1	2
0	21248	28.1	2
0	21249	28.1	2
0	21294	28.15	2
0	21295	28.15	2
0	21296	28.15	2
0	21297	28.15	2
0	21310	28.2	2
0	21311	28.2	2
0	21312	28.2	2
0	21313	28.2	2
0	21314	28.2	2
0	21315	28.2	2
0	21316	28.2	2
0	21317	28.2	2
0	21352	28.25	2
0	21353	28.25	2
0	21354	28.25	2
0	21355	28.25	2
0	21385	28.3	2
0	21386	28.3	2
0	21387	28.3	2
0	21388	28.3	2
0	21389	28.3	2
0	21390	28.3	2
0	21391	28.3	2
0	21392	28.3	2
0	21413	28.35	2
0	21414	28.35	2
0	21415	28.35	2
0	21416	28.35	2
0	21429	28.4	2
0	21430	28.4	2
0	21431	28.4	2
0	21432	28.4	2
0	21433	28.4	2
0	21434	28.4	2
0	21435	28.4	2
0	21436	28.4	2
0	21457	28.45	2
0	21458	28.45	2
0	21459	28.45	2
0	21460	28.45	2
0	21473	28.5	2
0	21474	28.5	2
0	21475	28.5	2
0	21476	28.5	2
0	21477	28.5	2
0	21478	28.5	2
0	21479	28.5	2
0	21480	28.5	2
0	21501	28.55	2
0	21502	28.55	2
0	21503	28.55	2
0	21504	28.55	2
0	21517	28.6	2
0	21518	28.6	2
0	21519	28.6	2
0	21520	28.6	2
0	21521	28.6	2
0	21522	28.6	2
0	21523	28.6	2
0	21524	28.6	2
0	21568	28.65	2
0	21569	28.65	2
0	21570	28.65	2
0	21571	28.65	2
0	21608	28.7	2
0	21609	28.7	2
0	21610	28.7	2
0	21611	28.7	2
0	21612	28.7	2
0	21613	28.7	2
0	21614	28.7	2
0	21615	28.7	2
0	21636	28.75	2
0	21637	28.75	2
0	21638	28.75	2
0	21639	28.75	2
0	21666	28.8	2
0	21667	28.8	2
0	21668	28.8	2
0	21669	28.8	2
0	21670	28.8	2
0	21671	28.8	2
0	21672	28.8	2
0	21673	28.8	2
0	21711	28.85	2
0	21712	28.85	2
0	21713	28.85	2
0	21714	28.85	2
0	21727	28.9	2
0	21728	28.9	2
0	21729	28.9	2
0	21730	28.9	2
0	21731	28.9	2
0	21732	28.9	2
0	21733	28.9	2
0	21734	28.9	2
0	21755	28.95	2
0	21756	28.95	2
0	21757	28.95	2
0	21758	28.95	2
0	21771	29	2
0	21772	29	2
0	21773	29	2
0	21774	29	2
0	21775	29	2
0	21776	29	2
0	21777	29	2
0	21778	29	2
0	21799	29.05	2
0	21800	29.05	2
0	21801	29.05	2
0	21802	29.05	2
0	21815	29.1	2
0	21816	29.1	2
0	21817	29.1	2
0	21818	29.1	2
0	21819	29.1	2
0	21820	29.1	2
0	21821	29.1	2
0	21822	29.1	2
0	21843	29.15	2
0	21844	29.15	2
0	21845	29.15	2
0	21846	29.15	2
0	21882	29.2	2
0	21883	29.2	2
0	21884	29.2	2
0	21885	29.2	2
0	21886	29.2	2
0	21887	29.2	2
0	21888	29.2	2
0	21889	29.2	2
0	21944	29.25	2
0	21945	29.25	2
0	21946	29.25	2
0	21947	29.25	2
0	21970	29.3	2
0	21971	29.3	2
0	21972	29.3	2
0	21973	29.3	2
0	21974	29.3	2
0	21975	29.3	2
0	21976	29.3	2
0	21977	29.3	2
0	22001	29.35	2
0	22002	29.35	2
0	22003	29.35	2
0	22004	29.35	2
0	22031	29.4	2
0	22032	29.4	2
0	22033	29.4	2
0	22034	29.4	2
0	22035	29.4	2
0	22036	29.4	2
0	22037	29.4	2
0	22038	29.4	2
0	22059	29.45	2
0	22060	29.45	2
0	22061	29.45	2
0	22062	29.45	2
0	22075	29.5	2
0	22076	29.5	2
0	22077	29.5	2
0	22078	29.5	2
0	22079	29.5	2
0	22080	29.5	2
0	22081	29.5	2
0	22082	29.5	2
0	22103	29.55	2
0	22104	29.55	2
0	22105	29.55	2
0	22106	29.55	2
0	22119	29.6	2
0	22120	29.6	2
0	22121	29.6	2
0	22122	29.6	2
0	22123	29.6	2
0	22124	29.6	2
0	22125	29.6	2
0	22126	29.6	2
0	22147	29.65	2
0	22148	29.65	2
0	22149	29.65	2
0	22150	29.65	2
0	22163	29.7	2
0	22164	29.7	2
0	22165	29.7	2
0	22166	29.7	2
0	22167	29.7	2
0	22168	29.7	2
0	22169	29.7	2
0	22170	29.7	2
0	22201	29.75	2
0	22202	29.75	2
0	22203	29.75	2
0	22204	29.75	2
0	22255	29.8	2
0	22256	29.8	2
0	22257	29.8	2
0	22258	29.8	2
0	22259	29.8	2
0	22260	29.8	2
0	22261	29.8	2
0	22262	29.8	2
0	22283	29.85	2
0	22284	29.85	2
0	22285	29.85	2
0	22286	29.85	2
0	22309	29.9	2
0	22310	29.9	2
0	22311	29.9	2
0	22312	29.9	2
0	22313	29.9	2
0	22314	29.9	2
0	22315	29.9	2
0	22316	29.9	2
0	22340	29.95	2
0	22341	29.95	2
0	22342	29.95	2
0	22343	29.95	2
0	22356	30	2
0	22357	30	2
0	22358	30	2
0	22359	30	2
0	22360	30	2
0	22361	30	2
0	22362	30	2
0	22363	30	2
0	22384	30.05	2
0	22385	30.05	2
0	22386	30.05	2
0	22387	30.05	2
0	22400	30.1	2
0	22401	30.1	2
0	22402	30.1	2
0	22403	30.1	2
0	22404	30.1	2
0	22405	30.1	2
0	22406	30.1	2
0	22407	30.1	2
0	22428	30.15	2
0	22429	30.15	2
0	22430	30.15	2
0	22431	30.15	2
0	22444	30.2	2
0	22445	30.2	2
0	22446	30.2	2
0	22447	30.2	2
0	22448	30.2	2
0	22449	30.2	2
0	22450	30.2	2
0	22451	30.2	2
0	22472	30.25	2
0	22473	30.25	2
0	22474	30.25	2
0	22475	30.25	2
0	22508	30.3	2
0	22509	30.3	2
0	22510	30.3	2
0	22511	30.3	2
0	22512	30.3	2
0	22513	30.3	2
0	22514	30.3	2
0	22515	30.3	2
0	22536	30.35	2
0	22537	30.35	2
0	22538	30.35	2
0	22539	30.35	2
0	22552	30.4	2
0	22553	30.4	2
0	22554	30.4	2
0	22555	30.4	2
0	22556	30.4	2
0	22557	30.4	2
0	22558	30.4	2
0	22559	30.4	2
0	22586	30.45	2
0	22587	30.45	2
0	22588	30.45	2
0	22589	30.45	2
0	22602	30.5	2
0	22603	30.5	2
0	22604	30.5	2
0	22605	30.5	2
0	22606	30.5	2
0	22607	30.5	2
0	22608	30.5	2
0	22609	30.5	2
0	22630	30.55	2
0	22631	30.55	2
0	22632	30.55	2
0	22633	30.55	2
0	22646	30.6	2
0	22647	30.6	2
0	22648	30.6	2
0	22649	30.6	2
0	22650	30.6	2
0	22651	30.6	2
0	22652	30.6	2
0	22653	30.6	2
0	22674	30.65	2
0	22675	30.65	2
0	22676	30.65	2
0	22677	30.65	2
0	22690	30.7	2
0	22691	30.7	2
0	22692	30.7	2
0	22693	30.7	2
0	22694	30.7	2
0	22695	30.7	2
0	22696	30.7	2
0	22697	30.7	2
0	22718	30.75	2
0	22719	30.75	2
0	22720	30.75	2
0	22721	30.75	2
0	22744	30.8	2
0	22745	30.8	2
0	22746	30.8	2
0	22747	30.8	2
0	22748	30.8	2
0	22749	30.8	2
0	22750	30.8	2
0	22751	30.8	2
0	22772	30.85	2
0	22773	30.85	2
0	22774	30.85	2
0	22775	30.85	2
0	22788	30.9	2
0	22789	30.9	2
0	22790	30.9	2
0	22791	30.9	2
0	22792	30.9	2
0	22793	30.9	2
0	22794	30.9	2
0	22795	30.9	2
0	22830	30.95	2
0	22831	30.95	2
0	22832	30.95	2
0	22833	30.95	2
0	22846	31	2
0	22847	31	2
0	22848	31	2
0	22849	31	2
0	22850	31	2
0	22851	31	2
0	22852	31	2
0	22853	31	2
0	22874	31.05	2
0	22875	31.05	2
0	22876	31.05	2
0	22877	31.05	2
0	22890	31.1	2
0	22891	31.1	2
0	22892	31.1	2
0	22893	31.1	2
0	22894	31.1	2
0	22895	31.1	2
0	22896	31.1	2
0	22897	31.1	2
0	22918	31.15	2
0	22919	31.15	2
0	22920	31.15	2
0	22921	31.15	2
0	22934	31.2	2
0	22935	31.2	2
0	22936	31.2	2
0	22937	31.2	2
0	22938	31.2	2
0	22939	31.2	2
0	22940	31.2	2
0	22941	31.2	2
0	22962	31.25	2
0	22963	31.25	2
0	22964	31.25	2
0	22965	31.25	2
0	22978	31.3	2
0	22979	31.3	2
0	22980	31.3	2
0	22981	31.3	2
0	22982	31.3	2
0	22983	31.3	2
0	22984	31.3	2
0	22985	31.3	2
0	23023	31.35	2
0	23024	31.35	2
0	23025	31.35	2
0	23026	31.35	2
0	23053	31.4	2
0	23054	31.4	2
0	23055	31.4	2
0	23056	31.4	2
0	23057	31.4	2
0	23058	31.4	2
0	23059	31.4	2
0	23060	31.4	2
0	23081	31.45	2
0	23082	31.45	2
0	23083	31.45	2
0	23084	31.45	2
0	23100	31.5	2
0	23101	31.5	2
0	23102	31.5	2
0	23103	31.5	2
0	23104	31.5	2
0	23105	31.5	2
0	23106	31.5	2
0	23107	31.5	2
0	23142	31.55	2
0	23143	31.55	2
0	23144	31.55	2
0	23145	31.55	2
0	23158	31.6	2
0	23159	31.6	2
0	23160	31.6	2
0	23161	31.6	2
0	23162	31.6	2
0	23163	31.6	2
0	23164	31.6	2
0	23165	31.6	2
0	23186	31.65	2
0	23187	31.65	2
0	23188	31.65	2
0	23189	31.65	2
0	23202	31.7	2
0	23203	31.7	2
0	23204	31.7	2
0	23205	31.7	2
0	23206	31.7	2
0	23207	31.7	2
0	23208	31.7	2
0	23209	31.7	2
0	23230	31.75	2
0	23231	31.75	2
0	23232	31.75	2
0	23233	31.75	2
0	23246	31.8	2
0	23247	31.8	2
0	23248	31.8	2
0	23249	31.8	2
0	23250	31.8	2
0	23251	31.8	2
0	23252	31.8	2
0	23253	31.8	2
0	23274	31.85	2
0	23275	31.85	2
0	23276	31.85	2
0	23277	31.85	2
0	23318	31.9	2
0	23319	31.9	2
0	23320	31.9	2
0	23321	31.9	2
0	23322	31.9	2
0	23323	31.9	2
0	23324	31.9	2
0	23325	31.9	2
0	23360	31.95	2
0	23361	31.95	2
0	23362	31.95	2
0	23363	31.95	2
0	23376	32	2
0	23377	32	2
0	23378	32	2
0	23379	32	2
0	23380	32	2
0	23381	32	2
0	23382	32	2
0	23383	32	2
0	23421	32.05	2
0	23422	32.05	2
0	23423	32.05	2
0	23424	32.05	2
0	23440	32.1	2
0	23441	32.1	2
0	23442	32.1	2
0	23443	32.1	2
0	23444	32.1	2
0	23445	32.1	2
0	23446	32.1	2
0	23447	32.1	2
0	23468	32.15	2
0	23469	32.15	2
0	23470	32.15	2
0	23471	32.15	2
0	23484	32.2	2
0	23485	32.2	2
0	23486	32.2	2
0	23487	32.2	2
0	23488	32.2	2
0	23489	32.2	2
0	23490	32.2	2
0	23491	32.2	2
0	23512	32.25	2
0	23513	32.25	2
0	23514	32.25	2
0	23515	32.25	2
0	23528	32.3	2
0	23529	32.3	2
0	23530	32.3	2
0	23531	32.3	2
0	23532	32.3	2
0	23533	32.3	2
0	23534	32.3	2
0	23535	32.3	2
0	23556	32.35	2
0	23557	32.35	2
0	23558	32.35	2
0	23559	32.35	2
0	23575	32.4	2
0	23576	32.4	2
0	23577	32.4	2
0	23578	32.4	2
0	23579	32.4	2
0	23580	32.4	2
0	23581	32.4	2
0	23582	32.4	2
0	23603	32.45	2
0	23604	32.45	2
0	23605	32.45	2
0	23606	32.45	2
0	23619	32.5	2
0	23620	32.5	2
0	23621	32.5	2
0	23622	32.5	2
0	23623	32.5	2
0	23624	32.5	2
0	23625	32.5	2
0	23626	32.5	2
0	23647	32.55	2
0	23648	32.55	2
0	23649	32.55	2
0	23650	32.55	2
0	23663	32.6	2
0	23664	32.6	2
0	23665	32.6	2
0	23666	32.6	2
0	23667	32.6	2
0	23668	32.6	2
0	23669	32.6	2
0	23670	32.6	2
0	23691	32.65	2
0	23692	32.65	2
0	23693	32.65	2
0	23694	32.65	2
0	23707	32.7	2
0	23708	32.7	2
0	23709	32.7	2
0	23710	32.7	2
0	23711	32.7	2
0	23712	32.7	2
0	23713	32.7	2
0	23714	32.7	2
0	23735	32.75	2
0	23736	32.75	2
0	23737	32.75	2
0	23738	32.75	2
0	23751	32.8	2
0	23752	32.8	2
0	23753	32.8	2
0	23754	32.8	2
0	23755	32.8	2
0	23756	32.8	2
0	23757	32.8	2
0	23758	32.8	2
0	23779	32.85	2
0	23780	32.85	2
0	23781	32.85	2
0	23782	32.85	2
0	23798	32.9	2
0	23799	32.9	2
0	23800	32.9	2
0	23801	32.9	2
0	23802	32.9	2
0	23803	32.9	2
0	23804	32.9	2
0	23805	32.9	2
0	23826	32.95	2
0	23827	32.95	2
0	23828	32.95	2
0	23829	32.95	2
0	23842	33	2
0	23843	33	2
0	23844	33	2
0	23845	33	2
0	23846	33	2
0	23847	33	2
0	23848	33	2
0	23849	33	2
0	23870	33.05	2
0	23871	33.05	2
0	23872	33.05	2
0	23873	33.05	2
0	23889	33.1	2
0	23890	33.1	2
0	23891	33.1	2
0	23892	33.1	2
0	23893	33.1	2
0	23894	33.1	2
0	23895	33.1	2
0	23896	33.1	2
0	23917	33.15	2
0	23918	33.15	2
0	23919	33.15	2
0	23920	33.15	2
0	23933	33.2	2
0	23934	33.2	2
0	23935	33.2	2
0	23936	33.2	2
0	23937	33.2	2
0	23938	33.2	2
0	23939	33.2	2
0	23940	33.2	2
0	23961	33.25	2
0	23962	33.25	2
0	23963	33.25	2
0	23964	33.25	2
0	23977	33.3	2
0	23978	33.3	2
0	23979	33.3	2
0	23980	33.3	2
0	23981	33.3	2
0	23982	33.3	2
0	23983	33.3	2
0	23984	33.3	2
0	24005	33.35	2
0	24006	33.35	2
0	24007	33.35	2
0	24008	33.35	2
0	24021	33.4	2
0	24022	33.4	2
0	24023	33.4	2
0	24024	33.4	2
0	24025	33.4	2
0	24026	33.4	2
0	24027	33.4	2
0	24028	33.4	2
0	24063	33.45	2
0	24064	33.45	2
0	24065	33.45	2
0	24066	33.45	2
0	24079	33.5	2
0	24080	33.5	2
0	24081	33.5	2
0	24082	33.5	2
0	24083	33.5	2
0	24084	33.5	2
0	24085	33.5	2
0	24086	33.5	2
0	24121	33.55	2
0	24122	33.55	2
0	24123	33.55	2
0	24124	33.55	2
0	24151	33.6	2
0	24152	33.6	2
0	24153	33.6	2
0	24154	33.6	2
0	24155	33.6	2
0	24156	33.6	2
0	24157	33.6	2
0	24158	33.6	2
0	24182	33.65	2
0	24183	33.65	2
0	24184	33.65	2
0	24185	33.65	2
0	24212	33.7	2
0	24213	33.7	2
0	24214	33.7	2
0	24215	33.7	2
0	24216	33.7	2
0	24217	33.7	2
0	24218	33.7	2
0	24219	33.7	2
0	24240	33.75	2
0	24241	33.75	2
0	24242	33.75	2
0	24243	33.75	2
0	24256	33.8	2
0	24257	33.8	2
0	24258	33.8	2
0	24259	33.8	2
0	24260	33.8	2
0	24261	33.8	2
0	24262	33.8	2
0	24263	33.8	2
0	24284	33.85	2
0	24285	33.85	2
0	24286	33.85	2
0	24287	33.85	2
0	24300	33.9	2
0	24301	33.9	2
0	24302	33.9	2
0	24303	33.9	2
0	24304	33.9	2
0	24305	33.9	2
0	24306	33.9	2
0	24307	33.9	2
0	24328	33.95	2
0	24329	33.95	2
0	24330	33.95	2
0	24331	33.95	2
0	24361	34	2
0	24362	34	2
0	24363	34	2
0	24364	34	2
0	24365	34	2
0	24366	34	2
0	24367	34	2
0	24368	34	2
0	24389	34.05	2
0	24390	34.05	2
0	24391	34.05	2
0	24392	34.05	2
0	24419	34.1	2
0	24420	34.1	2
0	24421	34.1	2
0	24422	34.1	2
0	24423	34.1	2
0	24424	34.1	2
0	24425	34.1	2
0	24426	34.1	2
0	24450	34.15	2
0	24451	34.15	2
0	24452	34.15	2
0	24453	34.15	2
0	24466	34.2	2
0	24467	34.2	2
0	24468	34.2	2
0	24469	34.2	2
0	24470	34.2	2
0	24471	34.2	2
0	24472	34.2	2
0	24473	34.2	2
0	24497	34.25	2
0	24498	34.25	2
0	24499	34.25	2
0	24500	34.25	2
0	24513	34.3	2
0	24514	34.3	2
0	24515	34.3	2
0	24516	34.3	2
0	24517	34.3	2
0	24518	34.3	2
0	24519	34.3	2
0	24520	34.3	2
0	24541	34.35	2
0	24542	34.35	2
0	24543	34.35	2
0	24544	34.35	2
0	24557	34.4	2
0	24558	34.4	2
0	24559	34.4	2
0	24560	34.4	2
0	24561	34.4	2
0	24562	34.4	2
0	24563	34.4	2
0	24564	34.4	2
0	24585	34.45	2
0	24586	34.45	2
0	24587	34.45	2
0	24588	34.45	2
0	24615	34.5	2
0	24616	34.5	2
0	24617	34.5	2
0	24618	34.5	2
0	24619	34.5	2
0	24620	34.5	2
0	24621	34.5	2
0	24622	34.5	2
0	24643	34.55	2
0	24644	34.55	2
0	24645	34.55	2
0	24646	34.55	2
0	24659	34.6	2
0	24660	34.6	2
0	24661	34.6	2
0	24662	34.6	2
0	24663	34.6	2
0	24664	34.6	2
0	24665	34.6	2
0	24666	34.6	2
0	24690	34.65	2
0	24691	34.65	2
0	24692	34.65	2
0	24693	34.65	2
0	24706	34.7	2
0	24707	34.7	2
0	24708	34.7	2
0	24709	34.7	2
0	24710	34.7	2
0	24711	34.7	2
0	24712	34.7	2
0	24713	34.7	2
0	24734	34.75	2
0	24735	34.75	2
0	24736	34.75	2
0	24737	34.75	2
0	24750	34.8	2
0	24751	34.8	2
0	24752	34.8	2
0	24753	34.8	2
0	24754	34.8	2
0	24755	34.8	2
0	24756	34.8	2
0	24757	34.8	2
0	24778	34.85	2
0	24779	34.85	2
0	24780	34.85	2
0	24781	34.85	2
0	24794	34.9	2
0	24795	34.9	2
0	24796	34.9	2
0	24797	34.9	2
0	24798	34.9	2
0	24799	34.9	2
0	24800	34.9	2
0	24801	34.9	2
0	24822	34.95	2
0	24823	34.95	2
0	24824	34.95	2
0	24825	34.95	2
0	24838	35	2
0	24839	35	2
0	24840	35	2
0	24841	35	2
0	24842	35	2
0	24843	35	2
0	24844	35	2
0	24845	35	2
0	24866	35.05	2
0	24867	35.05	2
0	24868	35.05	2
0	24869	35.05	2
0	24882	35.1	2
0	24883	35.1	2
0	24884	35.1	2
0	24885	35.1	2
0	24886	35.1	2
0	24887	35.1	2
0	24888	35.1	2
0	24889	35.1	2
0	24910	35.15	2
0	24911	35.15	2
0	24912	35.15	2
0	24913	35.15	2
0	24926	35.2	2
0	24927	35.2	2
0	24928	35.2	2
0	24929	35.2	2
0	24930	35.2	2
0	24931	35.2	2
0	24932	35.2	2
0	24933	35.2	2
0	24957	35.25	2
0	24958	35.25	2
0	24959	35.25	2
0	24960	35.25	2
0	24973	35.3	2
0	24974	35.3	2
0	24975	35.3	2
0	24976	35.3	2
0	24977	35.3	2
0	24978	35.3	2
0	24979	35.3	2
0	24980	35.3	2
0	25001	35.35	2
0	25002	35.35	2
0	25003	35.35	2
0	25004	35.35	2
0	25017	35.4	2
0	25018	35.4	2
0	25019	35.4	2
0	25020	35.4	2
0	25021	35.4	2
0	25022	35.4	2
0	25023	35.4	2
0	25024	35.4	2
0	25045	35.45	2
0	25046	35.45	2
0	25047	35.45	2
0	25048	35.45	2
0	25061	35.5	2
0	25062	35.5	2
0	25063	35.5	2
0	25064	35.5	2
0	25065	35.5	2
0	25066	35.5	2
0	25067	35.5	2
0	25068	35.5	2
0	25089	35.55	2
0	25090	35.55	2
0	25091	35.55	2
0	25092	35.55	2
0	25122	35.6	2
0	25123	35.6	2
0	25124	35.6	2
0	25125	35.6	2
0	25126	35.6	2
0	25127	35.6	2
0	25128	35.6	2
0	25129	35.6	2
0	25150	35.65	2
0	25151	35.65	2
0	25152	35.65	2
0	25153	35.65	2
0	25176	35.7	2
0	25177	35.7	2
0	25178	35.7	2
0	25179	35.7	2
0	25180	35.7	2
0	25181	35.7	2
0	25182	35.7	2
0	25183	35.7	2
0	25218	35.75	2
0	25219	35.75	2
0	25220	35.75	2
0	25221	35.75	2
0	25234	35.8	2
0	25235	35.8	2
0	25236	35.8	2
0	25237	35.8	2
0	25238	35.8	2
0	25239	35.8	2
0	25240	35.8	2
0	25241	35.8	2
0	25276	35.85	2
0	25277	35.85	2
0	25278	35.85	2
0	25279	35.85	2
0	25292	35.9	2
0	25293	35.9	2
0	25294	35.9	2
0	25295	35.9	2
0	25296	35.9	2
0	25297	35.9	2
0	25298	35.9	2
0	25299	35.9	2
0	25320	35.95	2
0	25321	35.95	2
0	25322	35.95	2
0	25323	35.95	2
0	25336	36	2
0	25337	36	2
0	25338	36	2
0	25339	36	2
0	25340	36	2
0	25341	36	2
0	25342	36	2
0	25343	36	2
0	25364	36.05	2
0	25365	36.05	2
0	25366	36.05	2
0	25367	36.05	2
0	25394	36.1	2
0	25395	36.1	2
0	25396	36.1	2
0	25397	36.1	2
0	25398	36.1	2
0	25399	36.1	2
0	25400	36.1	2
0	25401	36.1	2
0	25425	36.15	2
0	25426	36.15	2
0	25427	36.15	2
0	25428	36.15	2
0	25441	36.2	2
0	25442	36.2	2
0	25443	36.2	2
0	25444	36.2	2
0	25445	36.2	2
0	25446	36.2	2
0	25447	36.2	2
0	25448	36.2	2
0	25497	36.25	2
0	25498	36.25	2
0	25499	36.25	2
0	25500	36.25	2
0	25513	36.3	2
0	25514	36.3	2
0	25515	36.3	2
0	25516	36.3	2
0	25517	36.3	2
0	25518	36.3	2
0	25519	36.3	2
0	25520	36.3	2
0	25541	36.35	2
0	25542	36.35	2
0	25543	36.35	2
0	25544	36.35	2
0	25560	36.4	2
0	25561	36.4	2
0	25562	36.4	2
0	25563	36.4	2
0	25564	36.4	2
0	25565	36.4	2
0	25566	36.4	2
0	25567	36.4	2
0	25588	36.45	2
0	25589	36.45	2
0	25590	36.45	2
0	25591	36.45	2
0	25604	36.5	2
0	25605	36.5	2
0	25606	36.5	2
0	25607	36.5	2
0	25608	36.5	2
0	25609	36.5	2
0	25610	36.5	2
0	25611	36.5	2
0	25632	36.55	2
0	25633	36.55	2
0	25634	36.55	2
0	25635	36.55	2
0	25648	36.6	2
0	25649	36.6	2
0	25650	36.6	2
0	25651	36.6	2
0	25652	36.6	2
0	25653	36.6	2
0	25654	36.6	2
0	25655	36.6	2
0	25702	36.65	2
0	25703	36.65	2
0	25704	36.65	2
0	25705	36.65	2
0	25718	36.7	2
0	25719	36.7	2
0	25720	36.7	2
0	25721	36.7	2
0	25722	36.7	2
0	25723	36.7	2
0	25724	36.7	2
0	25725	36.7	2
0	25746	36.75	2
0	25747	36.75	2
0	25748	36.75	2
0	25749	36.75	2
0	25776	36.8	2
0	25777	36.8	2
0	25778	36.8	2
0	25779	36.8	2
0	25780	36.8	2
0	25781	36.8	2
0	25782	36.8	2
0	25783	36.8	2
0	25807	36.85	2
0	25808	36.85	2
0	25809	36.85	2
0	25810	36.85	2
0	25823	36.9	2
0	25824	36.9	2
0	25825	36.9	2
0	25826	36.9	2
0	25827	36.9	2
0	25828	36.9	2
0	25829	36.9	2
0	25830	36.9	2
0	25851	36.95	2
0	25852	36.95	2
0	25853	36.95	2
0	25854	36.95	2
0	25867	37	2
0	25868	37	2
0	25869	37	2
0	25870	37	2
0	25871	37	2
0	25872	37	2
0	25873	37	2
0	25874	37	2
0	25895	37.05	2
0	25896	37.05	2
0	25897	37.05	2
0	25898	37.05	2
0	25911	37.1	2
0	25912	37.1	2
0	25913	37.1	2
0	25914	37.1	2
0	25915	37.1	2
0	25916	37.1	2
0	25917	37.1	2
0	25918	37.1	2
0	25939	37.15	2
0	25940	37.15	2
0	25941	37.15	2
0	25942	37.15	2
0	25979	37.2	2
0	25980	37.2	2
0	25981	37.2	2
0	25982	37.2	2
0	25983	37.2	2
0	25984	37.2	2
0	25985	37.2	2
0	25986	37.2	2
0	26007	37.25	2
0	26008	37.25	2
0	26009	37.25	2
0	26010	37.25	2
0	26023	37.3	2
0	26024	37.3	2
0	26025	37.3	2
0	26026	37.3	2
0	26027	37.3	2
0	26028	37.3	2
0	26029	37.3	2
0	26030	37.3	2
0	26057	37.35	2
0	26058	37.35	2
0	26059	37.35	2
0	26060	37.35	2
0	26076	37.4	2
0	26077	37.4	2
0	26078	37.4	2
0	26079	37.4	2
0	26080	37.4	2
0	26081	37.4	2
0	26082	37.4	2
0	26083	37.4	2
0	26104	37.45	2
0	26105	37.45	2
0	26106	37.45	2
0	26107	37.45	2
0	26120	37.5	2
0	26121	37.5	2
0	26122	37.5	2
0	26123	37.5	2
0	26124	37.5	2
0	26125	37.5	2
0	26126	37.5	2
0	26127	37.5	2
0	26148	37.55	2
0	26149	37.55	2
0	26150	37.55	2
0	26151	37.55	2
0	26164	37.6	2
0	26165	37.6	2
0	26166	37.6	2
0	26167	37.6	2
0	26168	37.6	2
0	26169	37.6	2
0	26170	37.6	2
0	26171	37.6	2
0	26192	37.65	2
0	26193	37.65	2
0	26194	37.65	2
0	26195	37.65	2
0	26208	37.7	2
0	26209	37.7	2
0	26210	37.7	2
0	26211	37.7	2
0	26212	37.7	2
0	26213	37.7	2
0	26214	37.7	2
0	26215	37.7	2
0	26246	37.75	2
0	26247	37.75	2
0	26248	37.75	2
0	26249	37.75	2
0	26262	37.8	2
0	26263	37.8	2
0	26264	37.8	2
0	26265	37.8	2
0	26266	37.8	2
0	26267	37.8	2
0	26268	37.8	2
0	26269	37.8	2
0	26293	37.85	2
0	26294	37.85	2
0	26295	37.85	2
0	26296	37.85	2
0	26323	37.9	2
0	26324	37.9	2
0	26325	37.9	2
0	26326	37.9	2
0	26327	37.9	2
0	26328	37.9	2
0	26329	37.9	2
0	26330	37.9	2
0	26351	37.95	2
0	26352	37.95	2
0	26353	37.95	2
0	26354	37.95	2
0	26370	38	2
0	26371	38	2
0	26372	38	2
0	26373	38	2
0	26374	38	2
0	26375	38	2
0	26376	38	2
0	26377	38	2
0	26398	38.05	2
0	26399	38.05	2
0	26400	38.05	2
0	26401	38.05	2
0	26414	38.1	2
0	26415	38.1	2
0	26416	38.1	2
0	26417	38.1	2
0	26418	38.1	2
0	26419	38.1	2
0	26420	38.1	2
0	26421	38.1	2
0	26442	38.15	2
0	26443	38.15	2
0	26444	38.15	2
0	26445	38.15	2
0	26458	38.2	2
0	26459	38.2	2
0	26460	38.2	2
0	26461	38.2	2
0	26462	38.2	2
0	26463	38.2	2
0	26464	38.2	2
0	26465	38.2	2
0	26486	38.25	2
0	26487	38.25	2
0	26488	38.25	2
0	26489	38.25	2
0	26512	38.3	2
0	26513	38.3	2
0	26514	38.3	2
0	26515	38.3	2
0	26516	38.3	2
0	26517	38.3	2
0	26518	38.3	2
0	26519	38.3	2
0	26540	38.35	2
0	26541	38.35	2
0	26542	38.35	2
0	26543	38.35	2
0	26556	38.4	2
0	26557	38.4	2
0	26558	38.4	2
0	26559	38.4	2
0	26560	38.4	2
0	26561	38.4	2
0	26562	38.4	2
0	26563	38.4	2
0	26598	38.45	2
0	26599	38.45	2
0	26600	38.45	2
0	26601	38.45	2
0	26614	38.5	2
0	26615	38.5	2
0	26616	38.5	2
0	26617	38.5	2
0	26618	38.5	2
0	26619	38.5	2
0	26620	38.5	2
0	26621	38.5	2
0	26642	38.55	2
0	26643	38.55	2
0	26644	38.55	2
0	26645	38.55	2
0	26658	38.6	2
0	26659	38.6	2
0	26660	38.6	2
0	26661	38.6	2
0	26662	38.6	2
0	26663	38.6	2
0	26664	38.6	2
0	26665	38.6	2
0	26686	38.65	2
0	26687	38.65	2
0	26688	38.65	2
0	26689	38.65	2
0	26702	38.7	2
0	26703	38.7	2
0	26704	38.7	2
0	26705	38.7	2
0	26706	38.7	2
0	26707	38.7	2
0	26708	38.7	2
0	26709	38.7	2
0	26730	38.75	2
0	26731	38.75	2
0	26732	38.75	2
0	26733	38.75	2
0	26763	38.8	2
0	26764	38.8	2
0	26765	38.8	2
0	26766	38.8	2
0	26767	38.8	2
0	26768	38.8	2
0	26769	38.8	2
0	26770	38.8	2
0	26805	38.85	2
0	26806	38.85	2
0	26807	38.85	2
0	26808	38.85	2
0	26821	38.9	2
0	26822	38.9	2
0	26823	38.9	2
0	26824	38.9	2
0	26825	38.9	2
0	26826	38.9	2
0	26827	38.9	2
0	26828	38.9	2
0	26877	38.95	2
0	26878	38.95	2
0	26879	38.95	2
0	26880	38.95	2
0	26903	39	2
0	26904	39	2
0	26905	39	2
0	26906	39	2
0	26907	39	2
0	26908	39	2
0	26909	39	2
0	26910	39	2
0	26931	39.05	2
0	26932	39.05	2
0	26933	39.05	2
0	26934	39.05	2
0	26947	39.1	2
0	26948	39.1	2
0	26949	39.1	2
0	26950	39.1	2
0	26951	39.1	2
0	26952	39.1	2
0	26953	39.1	2
0	26954	39.1	2
0	26975	39.15	2
0	26976	39.15	2
0	26977	39.15	2
0	26978	39.15	2
0	26991	39.2	2
0	26992	39.2	2
0	26993	39.2	2
0	26994	39.2	2
0	26995	39.2	2
0	26996	39.2	2
0	26997	39.2	2
0	26998	39.2	2
0	27019	39.25	2
0	27020	39.25	2
0	27021	39.25	2
0	27022	39.25	2
0	27035	39.3	2
0	27036	39.3	2
0	27037	39.3	2
0	27038	39.3	2
0	27039	39.3	2
0	27040	39.3	2
0	27041	39.3	2
0	27042	39.3	2
0	27167	39.35	2
0	27168	39.35	2
0	27169	39.35	2
0	27170	39.35	2
0	27217	39.4	2
0	27218	39.4	2
0	27219	39.4	2
0	27220	39.4	2
0	27221	39.4	2
0	27222	39.4	2
0	27223	39.4	2
0	27224	39.4	2
0	27282	39.45	2
0	27283	39.45	2
0	27284	39.45	2
0	27285	39.45	2
0	27332	39.5	2
0	27333	39.5	2
0	27334	39.5	2
0	27335	39.5	2
0	27336	39.5	2
0	27337	39.5	2
0	27338	39.5	2
0	27339	39.5	2
0	27388	39.55	2
0	27389	39.55	2
0	27390	39.55	2
0	27391	39.55	2
0	27434	39.6	2
0	27435	39.6	2
0	27436	39.6	2
0	27437	39.6	2
0	27438	39.6	2
0	27439	39.6	2
0	27440	39.6	2
0	27441	39.6	2
0	27480	39.65	2
0	27481	39.65	2
0	27482	39.65	2
0	27483	39.65	2
0	27536	39.7	2
0	27537	39.7	2
0	27538	39.7	2
0	27539	39.7	2
0	27540	39.7	2
0	27541	39.7	2
0	27542	39.7	2
0	27543	39.7	2
0	27567	39.75	2
0	27568	39.75	2
0	27569	39.75	2
0	27570	39.75	2
0	27583	39.8	2
0	27584	39.8	2
0	27585	39.8	2
0	27586	39.8	2
0	27587	39.8	2
0	27588	39.8	2
0	27589	39.8	2
0	27590	39.8	2
0	27611	39.85	2
0	27612	39.85	2
0	27613	39.85	2
0	27614	39.85	2
0	27627	39.9	2
0	27628	39.9	2
0	27629	39.9	2
0	27630	39.9	2
0	27631	39.9	2
0	27632	39.9	2
0	27633	39.9	2
0	27634	39.9	2
0	27665	39.95	2
0	27666	39.95	2
0	27667	39.95	2
0	27668	39.95	2
0	27681	40	2
0	27682	40	2
0	27683	40	2
0	27684	40	2
0	27685	40	2
0	27686	40	2
0	27687	40	2
0	27688	40	2
0	27709	40.05	2
0	27710	40.05	2
0	27711	40.05	2
0	27712	40.05	2
0	27739	40.1	2
0	27740	40.1	2
0	27741	40.1	2
0	27742	40.1	2
0	27743	40.1	2
0	27744	40.1	2
0	27745	40.1	2
0	27746	40.1	2
0	27767	40.15	2
0	27768	40.15	2
0	27769	40.15	2
0	27770	40.15	2
0	27783	40.2	2
0	27784	40.2	2
0	27785	40.2	2
0	27786	40.2	2
0	27787	40.2	2
0	27788	40.2	2
0	27789	40.2	2
0	27790	40.2	2
0	27811	40.25	2
0	27812	40.25	2
0	27813	40.25	2
0	27814	40.25	2
0	27827	40.3	2
0	27828	40.3	2
0	27829	40.3	2
0	27830	40.3	2
0	27831	40.3	2
0	27832	40.3	2
0	27833	40.3	2
0	27834	40.3	2
0	27855	40.35	2
0	27856	40.35	2
0	27857	40.35	2
0	27858	40.35	2
0	27871	40.4	2
0	27872	40.4	2
0	27873	40.4	2
0	27874	40.4	2
0	27875	40.4	2
0	27876	40.4	2
0	27877	40.4	2
0	27878	40.4	2
0	27899	40.45	2
0	27900	40.45	2
0	27901	40.45	2
0	27902	40.45	2
0	27929	40.5	2
0	27930	40.5	2
0	27931	40.5	2
0	27932	40.5	2
0	27933	40.5	2
0	27934	40.5	2
0	27935	40.5	2
0	27936	40.5	2
0	27957	40.55	2
0	27958	40.55	2
0	27959	40.55	2
0	27960	40.55	2
0	27973	40.6	2
0	27974	40.6	2
0	27975	40.6	2
0	27976	40.6	2
0	27977	40.6	2
0	27978	40.6	2
0	27979	40.6	2
0	27980	40.6	2
0	28004	40.65	2
0	28005	40.65	2
0	28006	40.65	2
0	28007	40.65	2
0	28020	40.7	2
0	28021	40.7	2
0	28022	40.7	2
0	28023	40.7	2
0	28024	40.7	2
0	28025	40.7	2
0	28026	40.7	2
0	28027	40.7	2
0	28048	40.75	2
0	28049	40.75	2
0	28050	40.75	2
0	28051	40.75	2
0	28064	40.8	2
0	28065	40.8	2
0	28066	40.8	2
0	28067	40.8	2
0	28068	40.8	2
0	28069	40.8	2
0	28070	40.8	2
0	28071	40.8	2
0	28092	40.85	2
0	28093	40.85	2
0	28094	40.85	2
0	28095	40.85	2
0	28108	40.9	2
0	28109	40.9	2
0	28110	40.9	2
0	28111	40.9	2
0	28112	40.9	2
0	28113	40.9	2
0	28114	40.9	2
0	28115	40.9	2
0	28153	40.95	2
0	28154	40.95	2
0	28155	40.95	2
0	28156	40.95	2
0	28169	41	2
0	28170	41	2
0	28171	41	2
0	28172	41	2
0	28173	41	2
0	28174	41	2
0	28175	41	2
0	28176	41	2
0	28200	41.05	2
0	28201	41.05	2
0	28202	41.05	2
0	28203	41.05	2
0	28233	41.1	2
0	28234	41.1	2
0	28235	41.1	2
0	28236	41.1	2
0	28237	41.1	2
0	28238	41.1	2
0	28239	41.1	2
0	28240	41.1	2
0	28261	41.15	2
0	28262	41.15	2
0	28263	41.15	2
0	28264	41.15	2
0	28291	41.2	2
0	28292	41.2	2
0	28293	41.2	2
0	28294	41.2	2
0	28295	41.2	2
0	28296	41.2	2
0	28297	41.2	2
0	28298	41.2	2
0	28319	41.25	2
0	28320	41.25	2
0	28321	41.25	2
0	28322	41.25	2
0	28335	41.3	2
0	28336	41.3	2
0	28337	41.3	2
0	28338	41.3	2
0	28339	41.3	2
0	28340	41.3	2
0	28341	41.3	2
0	28342	41.3	2
0	28363	41.35	2
0	28364	41.35	2
0	28365	41.35	2
0	28366	41.35	2
0	28379	41.4	2
0	28380	41.4	2
0	28381	41.4	2
0	28382	41.4	2
0	28383	41.4	2
0	28384	41.4	2
0	28385	41.4	2
0	28386	41.4	2
0	28407	41.45	2
0	28408	41.45	2
0	28409	41.45	2
0	28410	41.45	2
0	28471	41.5	2
0	28472	41.5	2
0	28473	41.5	2
0	28474	41.5	2
0	28475	41.5	2
0	28476	41.5	2
0	28477	41.5	2
0	28478	41.5	2
0	28523	41.55	2
0	28524	41.55	2
0	28525	41.55	2
0	28526	41.55	2
0	28567	41.6	2
0	28568	41.6	2
0	28569	41.6	2
0	28570	41.6	2
0	28571	41.6	2
0	28572	41.6	2
0	28573	41.6	2
0	28574	41.6	2
0	28636	41.65	2
0	28637	41.65	2
0	28638	41.65	2
0	28639	41.65	2
0	28652	41.7	2
0	28653	41.7	2
0	28654	41.7	2
0	28655	41.7	2
0	28656	41.7	2
0	28657	41.7	2
0	28658	41.7	2
0	28659	41.7	2
0	28680	41.75	2
0	28681	41.75	2
0	28682	41.75	2
0	28683	41.75	2
0	28696	41.8	2
0	28697	41.8	2
0	28698	41.8	2
0	28699	41.8	2
0	28700	41.8	2
0	28701	41.8	2
0	28702	41.8	2
0	28703	41.8	2
0	28724	41.85	2
0	28725	41.85	2
0	28726	41.85	2
0	28727	41.85	2
0	28740	41.9	2
0	28741	41.9	2
0	28742	41.9	2
0	28743	41.9	2
0	28744	41.9	2
0	28745	41.9	2
0	28746	41.9	2
0	28747	41.9	2
0	28768	41.95	2
0	28769	41.95	2
0	28770	41.95	2
0	28771	41.95	2
0	28784	42	2
0	28785	42	2
0	28786	42	2
0	28787	42	2
0	28788	42	2
0	28789	42	2
0	28790	42	2
0	28791	42	2
0	28859	42.05	2
0	28860	42.05	2
0	28861	42.05	2
0	28862	42.05	2
0	28907	42.1	2
0	28908	42.1	2
0	28909	42.1	2
0	28910	42.1	2
0	28911	42.1	2
0	28912	42.1	2
0	28913	42.1	2
0	28914	42.1	2
0	28956	42.15	2
0	28957	42.15	2
0	28958	42.15	2
0	28959	42.15	2
0	28975	42.2	2
0	28976	42.2	2
0	28977	42.2	2
0	28978	42.2	2
0	28979	42.2	2
0	28980	42.2	2
0	28981	42.2	2
0	28982	42.2	2
0	29006	42.25	2
0	29007	42.25	2
0	29008	42.25	2
0	29009	42.25	2
0	29022	42.3	2
0	29023	42.3	2
0	29024	42.3	2
0	29025	42.3	2
0	29026	42.3	2
0	29027	42.3	2
0	29028	42.3	2
0	29029	42.3	2
0	29050	42.35	2
0	29051	42.35	2
0	29052	42.35	2
0	29053	42.35	2
0	29066	42.4	2
0	29067	42.4	2
0	29068	42.4	2
0	29069	42.4	2
0	29070	42.4	2
0	29071	42.4	2
0	29072	42.4	2
0	29073	42.4	2
0	29094	42.45	2
0	29095	42.45	2
0	29096	42.45	2
0	29097	42.45	2
0	29110	42.5	2
0	29111	42.5	2
0	29112	42.5	2
0	29113	42.5	2
0	29114	42.5	2
0	29115	42.5	2
0	29116	42.5	2
0	29117	42.5	2
0	29152	42.55	2
0	29153	42.55	2
0	29154	42.55	2
0	29155	42.55	2
0	29168	42.6	2
0	29169	42.6	2
0	29170	42.6	2
0	29171	42.6	2
0	29172	42.6	2
0	29173	42.6	2
0	29174	42.6	2
0	29175	42.6	2
0	29196	42.65	2
0	29197	42.65	2
0	29198	42.65	2
0	29199	42.65	2
0	29222	42.7	2
0	29223	42.7	2
0	29224	42.7	2
0	29225	42.7	2
0	29226	42.7	2
0	29227	42.7	2
0	29228	42.7	2
0	29229	42.7	2
0	29250	42.75	2
0	29251	42.75	2
0	29252	42.75	2
0	29253	42.75	2
0	29280	42.8	2
0	29281	42.8	2
0	29282	42.8	2
0	29283	42.8	2
0	29284	42.8	2
0	29285	42.8	2
0	29286	42.8	2
0	29287	42.8	2
0	29308	42.85	2
0	29309	42.85	2
0	29310	42.85	2
0	29311	42.85	2
0	29324	42.9	2
0	29325	42.9	2
0	29326	42.9	2
0	29327	42.9	2
0	29328	42.9	2
0	29329	42.9	2
0	29330	42.9	2
0	29331	42.9	2
0	29355	42.95	2
0	29356	42.95	2
0	29357	42.95	2
0	29358	42.95	2
0	29371	43	2
0	29372	43	2
0	29373	43	2
0	29374	43	2
0	29375	43	2
0	29376	43	2
0	29377	43	2
0	29378	43	2
0	29399	43.05	2
0	29400	43.05	2
0	29401	43.05	2
0	29402	43.05	2
0	29418	43.1	2
0	29419	43.1	2
0	29420	43.1	2
0	29421	43.1	2
0	29422	43.1	2
0	29423	43.1	2
0	29424	43.1	2
0	29425	43.1	2
0	29446	43.15	2
0	29447	43.15	2
0	29448	43.15	2
0	29449	43.15	2
0	29462	43.2	2
0	29463	43.2	2
0	29464	43.2	2
0	29465	43.2	2
0	29466	43.2	2
0	29467	43.2	2
0	29468	43.2	2
0	29469	43.2	2
0	29490	43.25	2
0	29491	43.25	2
0	29492	43.25	2
0	29493	43.25	2
0	29506	43.3	2
0	29507	43.3	2
0	29508	43.3	2
0	29509	43.3	2
0	29510	43.3	2
0	29511	43.3	2
0	29512	43.3	2
0	29513	43.3	2
0	29534	43.35	2
0	29535	43.35	2
0	29536	43.35	2
0	29537	43.35	2
0	29550	43.4	2
0	29551	43.4	2
0	29552	43.4	2
0	29553	43.4	2
0	29554	43.4	2
0	29555	43.4	2
0	29556	43.4	2
0	29557	43.4	2
0	29578	43.45	2
0	29579	43.45	2
0	29580	43.45	2
0	29581	43.45	2
0	29594	43.5	2
0	29595	43.5	2
0	29596	43.5	2
0	29597	43.5	2
0	29598	43.5	2
0	29599	43.5	2
0	29600	43.5	2
0	29601	43.5	2
0	29622	43.55	2
0	29623	43.55	2
0	29624	43.55	2
0	29625	43.55	2
0	29638	43.6	2
0	29639	43.6	2
0	29640	43.6	2
0	29641	43.6	2
0	29642	43.6	2
[...]
2	15033	17.442590839471	63027
2	15091	17.511790839471	63168
2	15099	17.539470839471	63309
2	15126	17.567150839471	63450
2	15163	17.608670839471	63591
2	15174	17.636350839471	63732
2	15200	17.650190839471	63873
2	15207	17.664030839471	64014
2	15217	17.677870839471	64155
2	15227	17.691710839471	64296
2	15265	17.705550839471	64437
2	15272	17.719390839471	64578
2	15279	17.733230839471	64719
2	15289	17.747070839471	64860
2	15312	17.760910839471	65001
2	15354	17.802430839471	65142
2	15365	17.816270839471	65283
2	16038	19.128750839471	65424
2	16048	19.142590839471	65565
2	16081	19.170270839471	65706
2	16091	19.184110839471	65847
2	16372	19.634110839471	65988
2	16382	19.647950839471	66129
2	16410	19.661790839471	66270
2	16420	19.675630839471	66411
2	16427	19.689470839471	66552
2	16472	19.717150839471	66693
2	16482	19.730990839471	66834
2	18187	23.178750839471	66975
2	18226	23.206430839471	67116
2	18236	23.220270839471	67257
2	18243	23.234110839471	67398
2	18253	23.247950839471	67539
2	18281	23.261790839471	67680
2	18288	23.275630839471	67821
2	18298	23.289470839471	67962
2	18368	23.372510839471	68103
2	18378	23.386350839471	68244
2	18423	23.414030839471	68385
2	18930	24.306430839471	68526
2	18940	24.320270839471	68667
2	18947	24.334110839471	68808
2	18957	24.347950839471	68949
2	18980	24.361790839471	69090
2	18991	24.389470839471	69231
2	19030	24.417150839471	69372
2	19040	24.430990839471	69513
2	19272	24.828750839471	69654
2	19298	24.856430839471	69795
2	19320	24.870270839471	69936
2	19330	24.884110839471	70077
2	19340	24.897950839471	70218
2	19384	24.911790839471	70359
2	19392	24.925630839471	70500
2	19753	25.578750839471	70641
2	19763	25.592590839471	70782
2	20072	26.128750839471	70923
2	20536	26.978750839471	71064
2	20575	27.006430839471	71205
2	20585	27.020270839471	71346
2	20595	27.034110839471	71487
2	20605	27.047950839471	71628
2	20665	27.078750839471	71769
2	20703	27.106430839471	71910
2	20725	27.120270839471	72051
2	20736	27.147950839471	72192
2	20762	27.161790839471	72333
2	20772	27.175630839471	72474
2	20782	27.189470839471	72615
2	20822	27.203310839471	72756
2	21564	28.628750839471	72897
2	21878	29.178750839471	73038
2	21933	29.228750839471	73179
2	21940	29.242590839471	73320
2	21963	29.256430839471	73461
2	22238	29.778750839471	73602
2	22248	29.792590839471	73743
2	25695	36.628750839471	73884
2	27150	39.333390839471	74025
2	27160	39.347230839471	74166
2	27195	39.361070839471	74307
2	27203	39.374910839471	74448
2	27213	39.388750839471	74589
2	27250	39.402590839471	74730
2	27267	39.416430839471	74871
2	27278	39.444110839471	75012
2	27305	39.457950839471	75153
2	27313	39.471790839471	75294
2	27324	39.485630839471	75435
2	27372	39.513310839471	75576
2	27384	39.540990839471	75717
2	27409	39.554830839471	75858
2	27420	39.582510839471	75999
2	27430	39.596350839471	76140
2	27465	39.610190839471	76281
2	27473	39.637870839471	76422
2	27499	39.651710839471	76563
2	27509	39.665550839471	76704
2	27519	39.679390839471	76845
2	27529	39.693230839471	76986
2	28467	41.492590839471	77127
2	28502	41.506430839471	77268
2	28509	41.520270839471	77409
2	28520	41.547950839471	77550
2	28546	41.561790839471	77691
2	28553	41.575630839471	77832
2	28560	41.589470839471	77973
2	28600	41.603310839471	78114
2	28617	41.617150839471	78255
2	28627	41.630990839471	78396
2	28845	42.028750839471	78537
2	28855	42.042590839471	78678
2	28880	42.056430839471	78819
2	28904	42.097950839471	78960
2	28942	42.111790839471	79101
2	28952	42.125630839471	79242
2	31439	47.142590839471	79383
2	31462	47.156430839471	79524
2	31738	47.692590839471	79665
2	31780	47.706430839471	79806
2	35471	55.178750839471	79947
2	37652	59.478750839471	80088
3	1491	1.688227738403	141
3	1529	1.702067738403	282
3	1540	1.729747738403	423
3	1550	1.743587738403	564
3	1576	1.757427738403	705
3	1586	1.771267738403	846
3	1596	1.785107738403	987
3	1606	1.798947738403	1128
3	1668	1.826627738403	1269
3	1678	1.840467738403	1410
3	1706	1.881987738403	1551
3	1743	1.923507738403	1692
3	1753	1.937347738403	1833
3	1779	1.951187738403	1974
3	1790	1.978867738403	2115
3	1826	2.006547738403	2256
3	1833	2.020387738403	2397
3	1840	2.034227738403	2538
3	1850	2.048067738403	2679
3	1873	2.061907738403	2820
3	1913	2.103427738403	2961
3	1923	2.117267738403	3102
3	1933	2.131107738403	3243
3	1960	2.158787738403	3384
3	1970	2.172627738403	3525
3	1980	2.186467738403	3666
3	2028	2.200307738403	3807
3	2048	2.214147738403	3948
3	2075	2.227987738403	4089
3	2085	2.241827738403	4230
3	2108	2.255667738403	4371
3	2120	2.297187738403	4512
3	2157	2.338707738403	4653
3	2197	2.366387738403	4794
3	2208	2.394067738403	4935
3	2243	2.407907738403	5076
3	2250	2.421747738403	5217
3	2260	2.435587738403	5358
3	2267	2.449427738403	5499
3	2293	2.463267738403	5640
3	2300	2.477107738403	5781
3	2310	2.490947738403	5922
3	2349	2.518627738403	6063
3	2374	2.560147738403	6204
3	2384	2.573987738403	6345
3	2394	2.587827738403	6486
3	2432	2.601667738403	6627
3	2442	2.615507738403	6768
3	2449	2.629347738403	6909
3	2476	2.657027738403	7050
3	2483	2.670867738403	7191
3	2523	2.712387738403	7332
3	2534	2.740067738403	7473
3	2564	2.753907738403	7614
3	2583	2.767747738403	7755
3	2590	2.781587738403	7896
3	2626	2.809267738403	8037
3	2636	2.823107738403	8178
3	2646	2.836947738403	8319
3	2669	2.850787738403	8460
3	2679	2.864627738403	8601
3	2689	2.878467738403	8742
3	2729	2.919987738403	8883
3	2739	2.933827738403	9024
3	2746	2.947667738403	9165
3	2770	2.975347738403	9306
3	2809	3.003027738403	9447
3	2816	3.016867738403	9588
3	2826	3.030707738403	9729
3	2853	3.058387738403	9870
3	3221	3.592590839471	10011
3	3256	3.606430839471	10152
3	3267	3.634110839471	10293
3	3277	3.647950839471	10434
3	3303	3.661790839471	10575
3	3310	3.675630839471	10716
3	3317	3.689470839471	10857
3	3356	3.717150839471	10998
3	3364	3.744830839471	11139
3	3390	3.758670839471	11280
3	3397	3.772510839471	11421
3	3404	3.786350839471	11562
3	3455	3.814030839471	11703
3	3470	3.827870839471	11844
3	3494	3.855550839471	11985
3	3501	3.869390839471	12126
3	3512	3.897070839471	12267
3	3573	3.952430839471	12408
3	3586	3.966270839471	12549
3	3598	3.980110839471	12690
3	3605	3.993950839471	12831
3	3641	4.021630839471	12972
3	3669	4.063150839471	13113
3	3713	4.132350839471	13254
3	3720	4.146190839471	13395
3	3746	4.160030839471	13536
3	3756	4.173870839471	13677
3	3763	4.187710839471	13818
3	3802	4.215390839471	13959
3	3812	4.229230839471	14100
3	3822	4.243070839471	14241
3	3848	4.256910839471	14382
3	3858	4.270750839471	14523
3	3865	4.284590839471	14664
3	4589	4.928750839471	14805
3	4619	4.997950839471	14946
3	4657	5.011790839471	15087
3	4667	5.025630839471	15228
3	4695	5.053310839471	15369
3	4712	5.067150839471	15510
3	4723	5.094830839471	15651
3	4758	5.108670839471	15792
3	4765	5.122510839471	15933
3	4772	5.136350839471	16074
3	4796	5.164030839471	16215
3	4836	5.205550839471	16356
3	4846	5.219390839471	16497
3	4856	5.233230839471	16638
3	4866	5.247070839471	16779
3	4892	5.260910839471	16920
3	4903	5.288590839471	17061
3	4943	5.330110839471	17202
3	4953	5.343950839471	17343
3	4979	5.357790839471	17484
3	4990	5.385470839471	17625
3	5035	5.413150839471	17766
3	5071	5.468510839471	17907
3	5078	5.482350839471	18048
3	5085	5.496190839471	18189
3	5132	5.510030839471	18330
3	5148	5.537710839471	18471
3	5173	5.551550839471	18612
3	5185	5.579230839471	18753
3	5225	5.620750839471	18894
3	5235	5.634590839471	19035
3	5245	5.648430839471	19176
3	5313	5.717630839471	19317
3	5341	5.759150839471	19458
3	5352	5.786830839471	19599
3	5388	5.814510839471	19740
3	5413	5.856030839471	19881
3	5424	5.883710839471	20022
3	5434	5.897550839471	20163
3	5472	5.911390839471	20304
3	5479	5.925230839471	20445
3	5508	5.980590839471	20586
3	5548	6.022110839471	20727
3	5579	6.063630839471	20868
3	5586	6.077470839471	21009
3	5622	6.105150839471	21150
3	5630	6.132830839471	21291
3	5637	6.146670839471	21432
3	5664	6.174350839471	21573
3	5674	6.188190839471	21714
3	5709	6.202030839471	21855
3	5719	6.215870839471	21996
3	5729	6.229710839471	22137
3	5739	6.243550839471	22278
3	5766	6.271230839471	22419
3	5776	6.285070839471	22560
3	5815	6.312750839471	22701
3	5825	6.326590839471	22842
3	5835	6.340430839471	22983
3	5858	6.354270839471	23124
3	5868	6.368110839471	23265
3	5879	6.395790839471	23406
3	5918	6.423470839471	23547
3	5946	6.464990839471	23688
3	5953	6.478830839471	23829
3	6003	6.534190839471	23970
3	6013	6.548030839471	24111
3	6040	6.575710839471	24252
3	6050	6.589550839471	24393
3	6085	6.603390839471	24534
3	6092	6.617230839471	24675
3	6099	6.631070839471	24816
3	6109	6.644910839471	24957
3	6139	6.658750839471	25098
3	6151	6.686430839471	25239
3	6191	6.727950839471	25380
3	6220	6.783310839471	25521
3	6230	6.797150839471	25662
3	6268	6.810990839471	25803
3	6278	6.824830839471	25944
3	6285	6.838670839471	26085
3	6313	6.880190839471	26226
3	6352	6.907870839471	26367
3	6363	6.935550839471	26508
3	6370	6.949390839471	26649
3	6394	6.977070839471	26790
3	6448	7.018590839471	26931
3	6455	7.032430839471	27072
3	6462	7.046270839471	27213
3	6490	7.060110839471	27354
3	6498	7.087790839471	27495
3	6533	7.101630839471	27636
3	6540	7.115470839471	27777
3	6547	7.129310839471	27918
3	6576	7.156990839471	28059
3	6587	7.170830839471	28200
3	6595	7.198510839471	28341
3	6633	7.212350839471	28482
3	6643	7.226190839471	28623
3	6672	7.253870839471	28764
3	7517	8.778750839471	28905
3	7553	8.806430839471	29046
3	7563	8.820270839471	29187
3	7570	8.834110839471	29328
3	7580	8.847950839471	29469
3	7606	8.861790839471	29610
3	7616	8.875630839471	29751
3	7652	8.903310839471	29892
3	7659	8.917150839471	30033
3	7670	8.944830839471	30174
3	7727	9.000190839471	30315
3	7737	9.014030839471	30456
3	7747	9.027870839471	30597
3	7771	9.055550839471	30738
3	7779	9.083230839471	30879
3	7819	9.124750839471	31020
3	7829	9.138590839471	31161
3	7854	9.152430839471	31302
3	7871	9.166270839471	31443
3	7881	9.180110839471	31584
3	7891	9.193950839471	31725
3	8148	9.228750839471	31866
3	8190	9.256430839471	32007
3	8202	9.297950839471	32148
3	8297	9.325630839471	32289
3	8307	9.328750839471	32430
3	8314	9.339470839471	32571
3	8345	9.353310839471	32712
3	8370	9.367150839471	32853
3	8381	9.380990839471	32994
3	8391	9.384110839471	33135
3	8401	9.394830839471	33276
3	8411	9.397950839471	33417
3	8446	9.408670839471	33558
3	8456	9.411790839471	33699
3	8463	9.422510839471	33840
3	8473	9.425630839471	33981
3	8483	9.436350839471	34122
3	8510	9.450190839471	34263
3	8521	9.464030839471	34404
3	8531	9.467150839471	34545
3	8541	9.477870839471	34686
3	8583	9.508670839471	34827
3	8593	9.519390839471	34968
3	8603	9.522510839471	35109
3	8614	9.536350839471	35250
3	8624	9.547070839471	35391
3	8652	9.564030839471	35532
3	8663	9.577870839471	35673
3	8674	9.591710839471	35814
3	8712	9.602430839471	35955
3	8719	9.605550839471	36096
3	8796	9.624128193702	36237
3	8806	9.630110839471	36378
3	8817	9.643950839471	36519
3	8841	9.657790839471	36660
3	8852	9.671630839471	36801
3	8863	9.685470839471	36942
3	8870	9.693328193702	37083
3	8880	9.699310839471	37224
3	8920	9.707168193702	37365
3	8931	9.713150839471	37506
3	8941	9.721008193702	37647
3	8948	9.726990839471	37788
3	8959	9.740830839471	37929
3	8969	9.748688193702	38070
3	8999	9.754670839471	38211
3	9010	9.762528193702	38352
3	9020	9.768510839471	38493
3	9027	9.776368193702	38634
3	9037	9.782350839471	38775
3	9044	9.790208193702	38916
3	9054	9.796190839471	39057
3	9093	9.810030839471	39198
3	9103	9.817888193702	39339
3	9110	9.823870839471	39480
3	9121	9.837710839471	39621
3	9131	9.845568193702	39762
3	9159	9.851550839471	39903
3	9172	9.879230839471	40044
3	9182	9.887088193702	40185
3	9222	9.906910839471	40326
3	9232	9.914768193702	40467
3	9239	9.920750839471	40608
3	9250	9.934590839471	40749
3	9258	9.948430839471	40890
3	9284	9.956288193702	41031
3	9291	9.962270839471	41172
3	9301	9.970128193702	41313
3	9310	9.989950839471	41454
3	9320	9.997808193702	41595
3	9356	10.011648193702	41736
3	9363	10.017630839471	41877
3	9373	10.025488193702	42018
3	9385	10.045310839471	42159
3	9409	10.059150839471	42300
3	9419	10.072990839471	42441
3	9429	10.086830839471	42582
3	9464	10.100670839471	42723
3	9474	10.114510839471	42864
3	9481	10.128350839471	43005
3	9491	10.142190839471	43146
3	9515	10.169870839471	43287
3	9526	10.197550839471	43428
3	9564	10.211390839471	43569
3	9574	10.225230839471	43710
3	9600	10.252910839471	43851
3	9617	10.266750839471	43992
3	9624	10.280590839471	44133
3	9634	10.294430839471	44274
3	9672	10.308270839471	44415
3	9683	10.335950839471	44556
3	9693	10.349790839471	44697
3	9720	10.377470839471	44838
3	9730	10.391310839471	44979
3	9772	10.432830839471	45120
3	9782	10.446670839471	45261
3	9808	10.460510839471	45402
3	9848	10.502030839471	45543
3	9860	10.543550839471	45684
3	9886	10.557390839471	45825
3	9896	10.571230839471	45966
3	9906	10.585070839471	46107
3	9913	10.598910839471	46248
3	9948	10.612750839471	46389
3	9958	10.626590839471	46530
3	10130	10.828750839471	46671
3	10157	10.856430839471	46812
3	10164	10.870270839471	46953
3	10175	10.897950839471	47094
3	10252	10.967150839471	47235
3	10292	11.008670839471	47376
3	10302	11.022510839471	47517
3	10312	11.036350839471	47658
3	10335	11.050190839471	47799
3	10345	11.064030839471	47940
3	10355	11.077870839471	48081
3	10365	11.091710839471	48222
3	10405	11.105550839471	48363
3	10413	11.119390839471	48504
3	10666	11.478750839471	48645
3	10676	11.492590839471	48786
3	10716	11.506430839471	48927
3	10733	11.520270839471	49068
3	10758	11.561790839471	49209
3	10768	11.575630839471	49350
3	10778	11.589470839471	49491
3	10817	11.617150839471	49632
3	10827	11.630990839471	49773
3	10837	11.644830839471	49914
3	10863	11.658670839471	50055
3	10871	11.686350839471	50196
3	10910	11.714030839471	50337
3	10917	11.727870839471	50478
3	10927	11.741710839471	50619
3	10953	11.755550839471	50760
3	10963	11.769390839471	50901
3	10971	11.797070839471	51042
3	11006	11.810910839471	51183
3	11183	12.078750839471	51324
3	11273	12.203310839471	51465
3	11283	12.217150839471	51606
3	11293	12.230990839471	51747
3	11572	12.634110839471	51888
3	11582	12.647950839471	52029
3	11608	12.661790839471	52170
3	11616	12.689470839471	52311
3	11656	12.703310839471	52452
3	11666	12.717150839471	52593
3	11673	12.730990839471	52734
3	11683	12.744830839471	52875
3	11709	12.758670839471	53016
3	11720	12.786350839471	53157
3	11755	12.800190839471	53298
3	11765	12.814030839471	53439
3	11790	12.855550839471	53580
3	11800	12.869390839471	53721
3	11810	12.883230839471	53862
3	11820	12.897070839471	54003
3	12000	13.142590839471	54144
3	12026	13.156430839471	54285
3	12036	13.170270839471	54426
3	12043	13.184110839471	54567
3	12082	13.211790839471	54708
3	12092	13.225630839471	54849
3	12102	13.239470839471	54990
3	12128	13.253310839471	55131
3	12138	13.267150839471	55272
3	12148	13.280990839471	55413
3	12373	13.628750839471	55554
3	12380	13.642590839471	55695
3	12405	13.656430839471	55836
3	12431	13.678750839471	55977
3	12438	13.684110839471	56118
3	12448	13.692590839471	56259
3	12455	13.697950839471	56400
3	12491	13.711790839471	56541
3	12501	13.725630839471	56682
3	12508	13.739470839471	56823
3	12535	13.767150839471	56964
3	12545	13.780990839471	57105
3	12584	13.808670839471	57246
3	12818	14.192590839471	57387
3	12858	14.206430839471	57528
3	12869	14.220270839471	57669
3	12880	14.247950839471	57810
3	12907	14.275630839471	57951
3	13028	14.342590839471	58092
3	13055	14.370270839471	58233
3	13065	14.384110839471	58374
3	13072	14.397950839471	58515
3	13107	14.411790839471	58656
3	13133	14.467150839471	58797
3	13170	14.508670839471	58938
3	13180	14.522510839471	59079
3	13190	14.536350839471	59220
3	13218	14.550190839471	59361
3	13241	14.577870839471	59502
3	13248	14.591710839471	59643
3	13288	14.633230839471	59784
3	13298	14.647070839471	59925
3	13324	14.660910839471	60066
3	13335	14.688590839471	60207
3	13377	14.702430839471	60348
3	13401	14.716270839471	60489
3	13412	14.730110839471	60630
3	13422	14.743950839471	60771
3	13450	14.785470839471	60912
3	14316	16.492590839471	61053
3	14355	16.520270839471	61194
3	14365	16.534110839471	61335
3	14421	16.617150839471	61476
3	14431	16.630990839471	61617
3	14438	16.644830839471	61758
3	14462	16.672510839471	61899
3	14503	16.700190839471	62040
3	14520	16.714030839471	62181
3	14531	16.727870839471	62322
3	14697	16.978750839471	62463
3	14739	17.047950839471	62604
3	14766	17.075630839471	62745
3	15026	17.428750839471	62886
3	15033	17.442590839471	63027
3	15091	17.511790839471	63168
3	15099	17.539470839471	63309
3	15126	17.567150839471	63450
3	15163	17.608670839471	63591
3	15174	17.636350839471	63732
3	15200	17.650190839471	63873
3	15207	17.664030839471	64014
3	15217	17.677870839471	64155
3	15227	17.691710839471	64296
3	15265	17.705550839471	64437
3	15272	17.719390839471	64578
3	15279	17.733230839471	64719
3	15289	17.747070839471	64860
3	15312	17.760910839471	65001
3	15354	17.802430839471	65142
3	15365	17.816270839471	65283
3	16038	19.128750839471	65424
3	16048	19.142590839471	65565
3	16081	19.170270839471	65706
3	16091	19.184110839471	65847
3	16372	19.634110839471	65988
3	16382	19.647950839471	66129
3	16410	19.661790839471	66270
3	16420	19.675630839471	66411
3	16427	19.689470839471	66552
3	16472	19.717150839471	66693
3	16482	19.730990839471	66834
3	18187	23.178750839471	66975
3	18226	23.206430839471	67116
3	18236	23.220270839471	67257
3	18243	23.234110839471	67398
3	18253	23.247950839471	67539
3	18281	23.261790839471	67680
3	18288	23.275630839471	67821
3	18298	23.289470839471	67962
3	18368	23.372510839471	68103
3	18378	23.386350839471	68244
3	18423	23.414030839471	68385
3	18930	24.306430839471	68526
3	18940	24.320270839471	68667
3	18947	24.334110839471	68808
3	18957	24.347950839471	68949
3	18980	24.361790839471	69090
3	18991	24.389470839471	69231
3	19030	24.417150839471	69372
3	19040	24.430990839471	69513
3	19272	24.828750839471	69654
3	19298	24.856430839471	69795
3	19320	24.870270839471	69936
3	19330	24.884110839471	70077
3	19340	24.897950839471	70218
3	19384	24.911790839471	70359
3	19392	24.925630839471	70500
3	19753	25.578750839471	70641
3	19763	25.592590839471	70782
3	20072	26.128750839471	70923
3	20536	26.978750839471	71064
3	20575	27.006430839471	71205
3	20585	27.020270839471	71346
3	20595	27.034110839471	71487
3	20605	27.047950839471	71628
3	20665	27.078750839471	71769
3	20703	27.106430839471	71910
3	20725	27.120270839471	72051
3	20736	27.147950839471	72192
3	20762	27.161790839471	72333
3	20772	27.175630839471	72474
3	20782	27.189470839471	72615
3	20822	27.203310839471	72756
3	21564	28.628750839471	72897
3	21878	29.178750839471	73038
3	21933	29.228750839471	73179
3	21940	29.242590839471	73320
3	21963	29.256430839471	73461
3	22238	29.778750839471	73602
3	22248	29.792590839471	73743
3	25695	36.628750839471	73884
3	27150	39.333390839471	74025
3	27160	39.347230839471	74166
3	27195	39.361070839471	74307
3	27203	39.374910839471	74448
3	27213	39.388750839471	74589
3	27250	39.402590839471	74730
3	27267	39.416430839471	74871
3	27278	39.444110839471	75012
3	27305	39.457950839471	75153
3	27313	39.471790839471	75294
3	27324	39.485630839471	75435
3	27372	39.513310839471	75576
3	27384	39.540990839471	75717
3	27409	39.554830839471	75858
3	27420	39.582510839471	75999
3	27430	39.596350839471	76140
3	27465	39.610190839471	76281
3	27473	39.637870839471	76422
3	27499	39.651710839471	76563
3	27509	39.665550839471	76704
3	27519	39.679390839471	76845
3	27529	39.693230839471	76986
3	28467	41.492590839471	77127
3	28502	41.506430839471	77268
3	28509	41.520270839471	77409
3	28520	41.547950839471	77550
3	28546	41.561790839471	77691
3	28553	41.575630839471	77832
3	28560	41.589470839471	77973
3	28600	41.603310839471	78114
3	28617	41.617150839471	78255
3	28627	41.630990839471	78396
3	28845	42.028750839471	78537
3	28855	42.042590839471	78678
3	28880	42.056430839471	78819
3	28904	42.097950839471	78960
3	28942	42.111790839471	79101
3	28952	42.125630839471	79242
3	31439	47.142590839471	79383
3	31462	47.156430839471	79524
3	31738	47.692590839471	79665
3	31780	47.706430839471	79806
3	35471	55.178750839471	79947
3	37652	59.478750839471	80088

