version 2
run B-0-20190928-23:17:48-5092
attr configname B
attr datetime 20190928-23:17:48
attr experiment B
attr inifile SimV2.ini
attr iterationvars ""
attr iterationvarsf ""
attr measurement ""
attr network NetworkTormV2
attr processid 5092
attr repetition 0
attr replication #0
attr resultdir results
attr runnumber 0
attr seedset 0
param **.mobility.traceFile "\"paths/B.movements\""
param **.numNodes 4
param **.wirelessIfc.wirelessRange 40m
param **.bluetoothIfc.wirelessRange 40m
param **application.destinationAddr "\"Wf:00:00:00:00:02\""
param **application.destinationBTAddr "\"Bt:00:00:00:00:02\""
param **application.nodesThatGen true
param **application.nodesGenMsg "\"0,1\""
param **application.startMultipleMsg true
param **application.numMultipleMsg 100
param **application.hopsListSize 50
param **.numNodes 2
param **.application.usedRNG 1
param **.application.dataGenerationInterval 1ms
param **.application.dataSizeInBytes 10
param **.application.ttl 999999s
param **application.destinationAddr "\"Wf:00:00:00:00:02\""
param **application.destinationBTAddr "\"Bt:00:00:00:00:02\""
param **application.nodesThatGen true
param **application.nodesGenMsg "\"0\""
param **application.startMultipleMsg true
param **application.numMultipleMsg 100
param **application.hopsListSize 50
param **.application.endGeneratingMsg 999999s
param **.routingLayer "\"RoutingLqeGw\""
param **.routing.maximumCacheSize 5000byte
param **.routing.maximumHopCount 25
param **.routing.useTTL false
param **.routing.waitBFsend 0.5
param **.routing.max_age 999999s
param **.routing.gateway_list "\"Wf:00:00:00:00:02;0|.\""
param **.routing.actual_gateway "\"Wf:00:00:00:00:02\""
param **.routing.gwCheckPeriod 5s
param **.neighboring.antiEntropyInterval 500ms
param **.neighboring.maximumRandomBackoffDuration 1s
param **.neighboring.delayPerDataMsg 0.1
param **neighboring.usedRNG 2
param **.neighboring.GWAddr "\"Wf:00:00:00:00:02\""
param **.neighboring.sendWifiFirst true
param **.neighboring.maxLengthGraph 20
param **.neighboring.max_age 999999s
param **.neighboring.max_absent_time 1s
param **.wirelessIfc.wirelessRange 15m
param **.wirelessIfc.neighbourScanInterval 50ms
param **.wirelessIfc.bandwidthBitRate 100000bps
param **.wirelessIfc.wirelessHeaderSize 32byte
param **.wirelessIfc.minSSI -90
param **.wirelessIfc.limitQueueTime 400ms
param **.wirelessIfc.my_limit_rate 0bps
param **.bluetoothIfc.wirelessRange 15m
param **.bluetoothIfc.neighbourScanInterval 100ms
param **.bluetoothIfc.bandwidthBitRate 100000bps
param **.bluetoothIfc.wirelessHeaderSize 16byte
param **.bluetoothIfc.minSSI -90
param **.mobilityType "\"BonnMotionMobility\""
param **.mobility.traceFile "\"paths/Moves2.movements\""
param **.mobility.is3D false
param **.mobility.nodeId -1

vector 0 NetworkTormV2 neighbourhoodSize:vector ETV
attr source neighbourhoodSize
vector 1 NetworkTormV2 deliveryRatio:vector ETV
attr source sum(totalDataBytesReceived)/sum(totalDataBytesReceivableByAllNodes)
vector 2 NetworkTormV2 dataBytesReceivedSum:vector ETV
attr source sum(dataBytesReceived)
vector 3 NetworkTormV2 totalBytesReceivedSum:vector ETV
attr source sum(totalBytesReceived)
0	13	0.05	2
0	14	0.05	2
0	15	0.05	2
0	16	0.05	2
0	30	0.1	2
0	32	0.1	2
0	33	0.1	2
0	34	0.1	2
0	35	0.1	2
0	36	0.1	2
0	37	0.1	2
0	38	0.1	2
0	257	0.15	2
0	258	0.15	2
0	259	0.15	2
0	260	0.15	2
0	473	0.2	2
0	474	0.2	2
0	475	0.2	2
0	476	0.2	2
0	477	0.2	2
0	478	0.2	2
0	479	0.2	2
0	480	0.2	2
0	501	0.25	2
0	502	0.25	2
0	503	0.25	2
0	504	0.25	2
0	517	0.3	2
0	518	0.3	2
0	519	0.3	2
0	520	0.3	2
0	521	0.3	2
0	522	0.3	2
0	523	0.3	2
0	524	0.3	2
0	545	0.35	2
0	546	0.35	2
0	547	0.35	2
0	548	0.35	2
0	561	0.4	2
0	562	0.4	2
0	563	0.4	2
0	564	0.4	2
0	565	0.4	2
0	566	0.4	2
0	567	0.4	2
0	568	0.4	2
0	589	0.45	2
0	590	0.45	2
0	591	0.45	2
0	592	0.45	2
0	605	0.5	2
0	606	0.5	2
0	607	0.5	2
0	608	0.5	2
0	609	0.5	2
0	610	0.5	2
0	611	0.5	2
0	612	0.5	2
0	633	0.55	2
0	634	0.55	2
0	635	0.55	2
0	636	0.55	2
0	649	0.6	2
0	650	0.6	2
0	651	0.6	2
0	652	0.6	2
0	653	0.6	2
0	654	0.6	2
0	655	0.6	2
0	656	0.6	2
0	677	0.65	2
0	678	0.65	2
0	679	0.65	2
0	680	0.65	2
0	693	0.7	2
0	694	0.7	2
0	695	0.7	2
0	696	0.7	2
0	697	0.7	2
0	698	0.7	2
0	699	0.7	2
0	700	0.7	2
0	721	0.75	2
0	722	0.75	2
0	723	0.75	2
0	724	0.75	2
0	737	0.8	2
0	738	0.8	2
0	739	0.8	2
0	740	0.8	2
0	741	0.8	2
0	742	0.8	2
0	743	0.8	2
0	744	0.8	2
0	765	0.85	2
0	766	0.85	2
0	767	0.85	2
0	768	0.85	2
0	781	0.9	2
0	782	0.9	2
0	783	0.9	2
0	784	0.9	2
0	785	0.9	2
0	786	0.9	2
0	787	0.9	2
0	788	0.9	2
0	809	0.95	2
0	810	0.95	2
0	811	0.95	2
0	812	0.95	2
0	825	1	2
0	826	1	2
0	827	1	2
0	828	1	2
0	829	1	2
0	830	1	2
0	831	1	2
0	832	1	2
0	853	1.05	2
0	854	1.05	2
0	855	1.05	2
0	856	1.05	2
0	869	1.1	2
0	870	1.1	2
0	871	1.1	2
0	872	1.1	2
0	873	1.1	2
0	874	1.1	2
0	875	1.1	2
0	876	1.1	2
0	961	1.15	2
0	962	1.15	2
0	963	1.15	2
0	964	1.15	2
0	977	1.2	2
0	978	1.2	2
0	979	1.2	2
0	980	1.2	2
0	981	1.2	2
0	982	1.2	2
0	983	1.2	2
0	984	1.2	2
0	1005	1.25	2
0	1006	1.25	2
0	1007	1.25	2
0	1008	1.25	2
0	1021	1.3	2
0	1022	1.3	2
0	1023	1.3	2
0	1024	1.3	2
0	1025	1.3	2
0	1026	1.3	2
0	1027	1.3	2
0	1028	1.3	2
0	1049	1.35	2
0	1050	1.35	2
0	1051	1.35	2
0	1052	1.35	2
0	1065	1.4	2
0	1066	1.4	2
0	1067	1.4	2
0	1068	1.4	2
0	1069	1.4	2
0	1070	1.4	2
0	1071	1.4	2
0	1072	1.4	2
0	1093	1.45	2
0	1094	1.45	2
0	1095	1.45	2
0	1096	1.45	2
0	1109	1.5	2
0	1110	1.5	2
0	1111	1.5	2
0	1112	1.5	2
0	1113	1.5	2
0	1114	1.5	2
0	1115	1.5	2
0	1116	1.5	2
0	1137	1.55	2
0	1138	1.55	2
0	1139	1.55	2
0	1140	1.55	2
0	1153	1.6	2
0	1154	1.6	2
0	1155	1.6	2
0	1156	1.6	2
0	1157	1.6	2
0	1158	1.6	2
0	1159	1.6	2
0	1160	1.6	2
0	1181	1.65	2
0	1182	1.65	2
0	1183	1.65	2
0	1184	1.65	2
0	1449	1.7	2
0	1450	1.7	2
0	1451	1.7	2
0	1452	1.7	2
0	1453	1.7	2
0	1454	1.7	2
0	1455	1.7	2
0	1456	1.7	2
0	1498	1.75	2
0	1499	1.75	2
0	1500	1.75	2
0	1501	1.75	2
0	1548	1.8	2
0	1549	1.8	2
0	1550	1.8	2
0	1551	1.8	2
0	1552	1.8	2
0	1553	1.8	2
0	1554	1.8	2
0	1555	1.8	2
0	1634	1.85	2
0	1635	1.85	2
0	1636	1.85	2
0	1637	1.85	2
0	1669	1.9	2
0	1670	1.9	2
0	1671	1.9	2
0	1672	1.9	2
0	1673	1.9	2
0	1674	1.9	2
0	1675	1.9	2
0	1676	1.9	2
0	1730	1.95	2
0	1731	1.95	2
0	1732	1.95	2
0	1733	1.95	2
0	1783	2	2
0	1784	2	2
0	1785	2	2
0	1786	2	2
0	1787	2	2
0	1788	2	2
0	1789	2	2
0	1790	2	2
0	1832	2.05	2
0	1833	2.05	2
0	1834	2.05	2
0	1835	2.05	2
0	1876	2.1	2
0	1877	2.1	2
0	1878	2.1	2
0	1879	2.1	2
0	1880	2.1	2
0	1881	2.1	2
0	1882	2.1	2
0	1883	2.1	2
0	1914	2.15	2
0	1915	2.15	2
0	1916	2.15	2
0	1917	2.15	2
0	1957	2.2	2
0	1958	2.2	2
0	1959	2.2	2
0	1960	2.2	2
0	1961	2.2	2
0	1962	2.2	2
0	1963	2.2	2
0	1964	2.2	2
0	2026	2.25	2
0	2027	2.25	2
0	2028	2.25	2
0	2029	2.25	2
0	2063	2.3	2
0	2064	2.3	2
0	2065	2.3	2
0	2066	2.3	2
0	2067	2.3	2
0	2068	2.3	2
0	2069	2.3	2
0	2070	2.3	2
0	2131	2.35	2
0	2132	2.35	2
0	2133	2.35	2
0	2134	2.35	2
0	2167	2.4	2
0	2168	2.4	2
0	2169	2.4	2
0	2170	2.4	2
0	2171	2.4	2
0	2172	2.4	2
0	2173	2.4	2
0	2174	2.4	2
0	2213	2.45	2
0	2214	2.45	2
0	2215	2.45	2
0	2216	2.45	2
0	2248	2.5	2
0	2249	2.5	2
0	2250	2.5	2
0	2251	2.5	2
0	2252	2.5	2
0	2253	2.5	2
0	2254	2.5	2
0	2255	2.5	2
0	2297	2.55	2
0	2298	2.55	2
0	2299	2.55	2
0	2300	2.55	2
0	2332	2.6	2
0	2333	2.6	2
0	2334	2.6	2
0	2335	2.6	2
0	2336	2.6	2
0	2337	2.6	2
0	2338	2.6	2
0	2339	2.6	2
0	2369	2.65	2
0	2370	2.65	2
0	2371	2.65	2
0	2372	2.65	2
0	2410	2.7	2
0	2411	2.7	2
0	2412	2.7	2
0	2413	2.7	2
0	2414	2.7	2
0	2415	2.7	2
0	2416	2.7	2
0	2417	2.7	2
0	2480	2.75	2
0	2481	2.75	2
0	2482	2.75	2
0	2483	2.75	2
0	2527	2.8	2
0	2528	2.8	2
0	2529	2.8	2
0	2530	2.8	2
0	2531	2.8	2
0	2532	2.8	2
0	2533	2.8	2
0	2534	2.8	2
0	2585	2.85	2
0	2586	2.85	2
0	2587	2.85	2
0	2588	2.85	2
0	2635	2.9	2
0	2636	2.9	2
0	2637	2.9	2
0	2638	2.9	2
0	2639	2.9	2
0	2640	2.9	2
0	2641	2.9	2
0	2642	2.9	2
0	2684	2.95	2
0	2685	2.95	2
0	2686	2.95	2
0	2687	2.95	2
0	2725	3	2
0	2726	3	2
0	2727	3	2
0	2728	3	2
0	2729	3	2
0	2730	3	2
0	2731	3	2
0	2732	3	2
0	2778	3.05	2
0	2779	3.05	2
0	2780	3.05	2
0	2781	3.05	2
0	2797	3.1	2
0	2798	3.1	2
0	2799	3.1	2
0	2800	3.1	2
0	2801	3.1	2
0	2802	3.1	2
0	2803	3.1	2
0	2804	3.1	2
0	2825	3.15	2
0	2826	3.15	2
0	2827	3.15	2
0	2828	3.15	2
0	2841	3.2	2
0	2842	3.2	2
0	2843	3.2	2
0	2844	3.2	2
0	2845	3.2	2
0	2846	3.2	2
0	2847	3.2	2
0	2848	3.2	2
0	2869	3.25	2
0	2870	3.25	2
0	2871	3.25	2
0	2872	3.25	2
0	2888	3.3	2
0	2889	3.3	2
0	2890	3.3	2
0	2891	3.3	2
0	2892	3.3	2
0	2893	3.3	2
0	2894	3.3	2
0	2895	3.3	2
0	2916	3.35	2
0	2917	3.35	2
0	2918	3.35	2
0	2919	3.35	2
0	2932	3.4	2
0	2933	3.4	2
0	2934	3.4	2
0	2935	3.4	2
0	2936	3.4	2
0	2937	3.4	2
0	2938	3.4	2
0	2939	3.4	2
0	2980	3.45	2
0	2981	3.45	2
0	2982	3.45	2
0	2983	3.45	2
0	2996	3.5	2
0	2997	3.5	2
0	2998	3.5	2
0	2999	3.5	2
0	3000	3.5	2
0	3001	3.5	2
0	3002	3.5	2
0	3003	3.5	2
0	3024	3.55	2
0	3025	3.55	2
0	3026	3.55	2
0	3027	3.55	2
0	3164	3.6	2
0	3165	3.6	2
0	3166	3.6	2
0	3167	3.6	2
0	3168	3.6	2
0	3169	3.6	2
0	3170	3.6	2
0	3171	3.6	2
0	3219	3.65	2
0	3220	3.65	2
0	3221	3.65	2
0	3222	3.65	2
0	3263	3.7	2
0	3264	3.7	2
0	3265	3.7	2
0	3266	3.7	2
0	3267	3.7	2
0	3268	3.7	2
0	3269	3.7	2
0	3270	3.7	2
0	3331	3.75	2
0	3332	3.75	2
0	3333	3.75	2
0	3334	3.75	2
0	3369	3.8	2
0	3370	3.8	2
0	3371	3.8	2
0	3372	3.8	2
0	3373	3.8	2
0	3374	3.8	2
0	3375	3.8	2
0	3376	3.8	2
0	3421	3.85	2
0	3422	3.85	2
0	3423	3.85	2
0	3424	3.85	2
0	3474	3.9	2
0	3475	3.9	2
0	3476	3.9	2
0	3477	3.9	2
0	3478	3.9	2
0	3479	3.9	2
0	3480	3.9	2
0	3481	3.9	2
0	3511	3.95	2
0	3512	3.95	2
0	3513	3.95	2
0	3514	3.95	2
0	3562	4	2
0	3563	4	2
0	3564	4	2
0	3565	4	2
0	3566	4	2
0	3567	4	2
0	3568	4	2
0	3569	4	2
0	3614	4.05	2
0	3615	4.05	2
0	3616	4.05	2
0	3617	4.05	2
0	3646	4.1	2
0	3647	4.1	2
0	3648	4.1	2
0	3649	4.1	2
0	3650	4.1	2
0	3651	4.1	2
0	3652	4.1	2
0	3653	4.1	2
0	3707	4.15	2
0	3708	4.15	2
0	3709	4.15	2
0	3710	4.15	2
0	3741	4.2	2
0	3742	4.2	2
0	3743	4.2	2
0	3744	4.2	2
0	3745	4.2	2
0	3746	4.2	2
0	3747	4.2	2
0	3748	4.2	2
0	3791	4.25	2
0	3792	4.25	2
0	3793	4.25	2
0	3794	4.25	2
0	3899	4.3	2
0	3900	4.3	2
0	3901	4.3	2
0	3902	4.3	2
0	3903	4.3	2
0	3904	4.3	2
0	3905	4.3	2
0	3906	4.3	2
0	3969	4.35	2
0	3970	4.35	2
0	3971	4.35	2
0	3972	4.35	2
0	4003	4.4	2
0	4004	4.4	2
0	4005	4.4	2
0	4006	4.4	2
0	4007	4.4	2
0	4008	4.4	2
0	4009	4.4	2
0	4010	4.4	2
0	4059	4.45	2
0	4060	4.45	2
0	4061	4.45	2
0	4062	4.45	2
0	4115	4.5	2
0	4116	4.5	2
0	4117	4.5	2
0	4118	4.5	2
0	4119	4.5	2
0	4120	4.5	2
0	4121	4.5	2
0	4122	4.5	2
0	4159	4.55	2
0	4160	4.55	2
0	4161	4.55	2
0	4162	4.55	2
0	4206	4.6	2
0	4207	4.6	2
0	4208	4.6	2
0	4209	4.6	2
0	4210	4.6	2
0	4211	4.6	2
0	4212	4.6	2
0	4213	4.6	2
0	4261	4.65	2
0	4262	4.65	2
0	4263	4.65	2
0	4264	4.65	2
0	4306	4.7	2
0	4307	4.7	2
0	4308	4.7	2
0	4309	4.7	2
0	4310	4.7	2
0	4311	4.7	2
0	4312	4.7	2
0	4313	4.7	2
0	4335	4.75	2
0	4336	4.75	2
0	4337	4.75	2
0	4338	4.75	2
0	4351	4.8	2
0	4352	4.8	2
0	4353	4.8	2
0	4354	4.8	2
0	4355	4.8	2
0	4356	4.8	2
0	4357	4.8	2
0	4358	4.8	2
0	4379	4.85	2
0	4380	4.85	2
0	4381	4.85	2
0	4382	4.85	2
0	4398	4.9	2
0	4399	4.9	2
0	4400	4.9	2
0	4401	4.9	2
0	4402	4.9	2
0	4403	4.9	2
0	4404	4.9	2
0	4405	4.9	2
0	4426	4.95	2
0	4427	4.95	2
0	4428	4.95	2
0	4429	4.95	2
0	4460	5	2
0	4461	5	2
0	4462	5	2
0	4463	5	2
0	4464	5	2
0	4465	5	2
0	4466	5	2
0	4467	5	2
0	4488	5.05	2
0	4489	5.05	2
0	4490	5.05	2
0	4491	5.05	2
0	4504	5.1	2
0	4505	5.1	2
0	4506	5.1	2
0	4507	5.1	2
0	4508	5.1	2
0	4509	5.1	2
0	4510	5.1	2
0	4511	5.1	2
0	4757	5.15	2
0	4758	5.15	2
0	4759	5.15	2
0	4760	5.15	2
0	4800	5.2	2
0	4801	5.2	2
0	4802	5.2	2
0	4803	5.2	2
0	4804	5.2	2
0	4805	5.2	2
0	4806	5.2	2
0	4807	5.2	2
0	4853	5.25	2
0	4854	5.25	2
0	4855	5.25	2
0	4856	5.25	2
0	4888	5.3	2
0	4889	5.3	2
0	4890	5.3	2
0	4891	5.3	2
0	4892	5.3	2
0	4893	5.3	2
0	4894	5.3	2
0	4895	5.3	2
0	4935	5.35	2
0	4936	5.35	2
0	4937	5.35	2
0	4938	5.35	2
0	4981	5.4	2
0	4982	5.4	2
0	4983	5.4	2
0	4984	5.4	2
0	4985	5.4	2
0	4986	5.4	2
0	4987	5.4	2
0	4988	5.4	2
0	5028	5.45	2
0	5029	5.45	2
0	5030	5.45	2
0	5031	5.45	2
0	5065	5.5	2
0	5066	5.5	2
0	5067	5.5	2
0	5068	5.5	2
0	5069	5.5	2
0	5070	5.5	2
0	5071	5.5	2
0	5072	5.5	2
0	5139	5.55	2
0	5140	5.55	2
0	5141	5.55	2
0	5142	5.55	2
0	5179	5.6	2
0	5180	5.6	2
0	5181	5.6	2
0	5182	5.6	2
0	5183	5.6	2
0	5184	5.6	2
0	5185	5.6	2
0	5186	5.6	2
0	5214	5.65	2
0	5215	5.65	2
0	5216	5.65	2
0	5217	5.65	2
0	5260	5.7	2
0	5261	5.7	2
0	5262	5.7	2
0	5263	5.7	2
0	5264	5.7	2
0	5265	5.7	2
0	5266	5.7	2
0	5267	5.7	2
0	5311	5.75	2
0	5312	5.75	2
0	5313	5.75	2
0	5314	5.75	2
0	5337	5.8	2
0	5338	5.8	2
0	5339	5.8	2
0	5340	5.8	2
0	5341	5.8	2
0	5342	5.8	2
0	5343	5.8	2
0	5344	5.8	2
0	5389	5.85	2
0	5390	5.85	2
0	5391	5.85	2
0	5392	5.85	2
0	5421	5.9	2
0	5422	5.9	2
0	5423	5.9	2
0	5424	5.9	2
0	5425	5.9	2
0	5426	5.9	2
0	5427	5.9	2
0	5428	5.9	2
0	5474	5.95	2
0	5475	5.95	2
0	5476	5.95	2
0	5477	5.95	2
0	5502	6	2
0	5503	6	2
0	5504	6	2
0	5505	6	2
0	5506	6	2
0	5507	6	2
0	5508	6	2
0	5509	6	2
0	5552	6.05	2
0	5553	6.05	2
0	5554	6.05	2
0	5555	6.05	2
0	5615	6.1	2
0	5616	6.1	2
0	5617	6.1	2
0	5618	6.1	2
0	5619	6.1	2
0	5620	6.1	2
0	5621	6.1	2
0	5622	6.1	2
0	5659	6.15	2
0	5660	6.15	2
0	5661	6.15	2
0	5662	6.15	2
0	5706	6.2	2
0	5707	6.2	2
0	5708	6.2	2
0	5709	6.2	2
0	5710	6.2	2
0	5711	6.2	2
0	5712	6.2	2
0	5713	6.2	2
0	5784	6.25	2
0	5785	6.25	2
0	5786	6.25	2
0	5787	6.25	2
0	5825	6.3	2
0	5826	6.3	2
0	5827	6.3	2
0	5828	6.3	2
0	5829	6.3	2
0	5830	6.3	2
0	5831	6.3	2
0	5832	6.3	2
0	5872	6.35	2
0	5873	6.35	2
0	5874	6.35	2
0	5875	6.35	2
0	5915	6.4	2
0	5916	6.4	2
0	5917	6.4	2
0	5918	6.4	2
0	5919	6.4	2
0	5920	6.4	2
0	5921	6.4	2
0	5922	6.4	2
0	5959	6.45	2
0	5960	6.45	2
0	5961	6.45	2
0	5962	6.45	2
0	6006	6.5	2
0	6007	6.5	2
0	6008	6.5	2
0	6009	6.5	2
0	6010	6.5	2
0	6011	6.5	2
0	6012	6.5	2
0	6013	6.5	2
0	6037	6.55	2
0	6038	6.55	2
0	6039	6.55	2
0	6040	6.55	2
0	6053	6.6	2
0	6054	6.6	2
0	6055	6.6	2
0	6056	6.6	2
0	6057	6.6	2
0	6058	6.6	2
0	6059	6.6	2
0	6060	6.6	2
0	6084	6.65	2
0	6085	6.65	2
0	6086	6.65	2
0	6087	6.65	2
0	6100	6.7	2
0	6101	6.7	2
0	6102	6.7	2
0	6103	6.7	2
0	6104	6.7	2
0	6105	6.7	2
0	6106	6.7	2
0	6107	6.7	2
0	6128	6.75	2
0	6129	6.75	2
0	6130	6.75	2
0	6131	6.75	2
0	6144	6.8	2
0	6145	6.8	2
0	6146	6.8	2
0	6147	6.8	2
0	6148	6.8	2
0	6149	6.8	2
0	6150	6.8	2
0	6151	6.8	2
0	6172	6.85	2
0	6173	6.85	2
0	6174	6.85	2
0	6175	6.85	2
0	6188	6.9	2
0	6189	6.9	2
0	6190	6.9	2
0	6191	6.9	2
0	6192	6.9	2
0	6193	6.9	2
0	6194	6.9	2
0	6195	6.9	2
0	6216	6.95	2
0	6217	6.95	2
0	6218	6.95	2
0	6219	6.95	2
0	6232	7	2
0	6233	7	2
0	6234	7	2
0	6235	7	2
0	6236	7	2
0	6237	7	2
0	6238	7	2
0	6239	7	2
0	6260	7.05	2
0	6261	7.05	2
0	6262	7.05	2
0	6263	7.05	2
0	6276	7.1	2
0	6277	7.1	2
0	6278	7.1	2
0	6279	7.1	2
0	6280	7.1	2
0	6281	7.1	2
0	6282	7.1	2
0	6283	7.1	2
0	6317	7.15	2
0	6318	7.15	2
0	6319	7.15	2
0	6320	7.15	2
0	6333	7.2	2
0	6334	7.2	2
0	6335	7.2	2
0	6336	7.2	2
0	6337	7.2	2
0	6338	7.2	2
0	6339	7.2	2
0	6340	7.2	2
0	6361	7.25	2
0	6362	7.25	2
0	6363	7.25	2
0	6364	7.25	2
0	6390	7.3	2
0	6391	7.3	2
0	6392	7.3	2
0	6393	7.3	2
0	6394	7.3	2
0	6395	7.3	2
0	6396	7.3	2
0	6397	7.3	2
0	6418	7.35	2
0	6419	7.35	2
0	6420	7.35	2
0	6421	7.35	2
0	6434	7.4	2
0	6435	7.4	2
0	6436	7.4	2
0	6437	7.4	2
0	6438	7.4	2
0	6439	7.4	2
0	6440	7.4	2
0	6441	7.4	2
0	6462	7.45	2
0	6463	7.45	2
0	6464	7.45	2
0	6465	7.45	2
0	6478	7.5	2
0	6479	7.5	2
0	6480	7.5	2
0	6481	7.5	2
0	6482	7.5	2
0	6483	7.5	2
0	6484	7.5	2
0	6485	7.5	2
0	6506	7.55	2
0	6507	7.55	2
0	6508	7.55	2
0	6509	7.55	2
0	6522	7.6	2
0	6523	7.6	2
0	6524	7.6	2
0	6525	7.6	2
0	6526	7.6	2
0	6527	7.6	2
0	6528	7.6	2
0	6529	7.6	2
0	6550	7.65	2
0	6551	7.65	2
0	6552	7.65	2
0	6553	7.65	2
0	6583	7.7	2
0	6584	7.7	2
0	6585	7.7	2
0	6586	7.7	2
0	6587	7.7	2
0	6588	7.7	2
0	6589	7.7	2
0	6590	7.7	2
0	6611	7.75	2
0	6612	7.75	2
0	6613	7.75	2
0	6614	7.75	2
0	6627	7.8	2
0	6628	7.8	2
0	6629	7.8	2
0	6630	7.8	2
0	6631	7.8	2
0	6632	7.8	2
0	6633	7.8	2
0	6634	7.8	2
0	6668	7.85	2
0	6669	7.85	2
0	6670	7.85	2
0	6671	7.85	2
0	6684	7.9	2
0	6685	7.9	2
0	6686	7.9	2
0	6687	7.9	2
0	6688	7.9	2
0	6689	7.9	2
0	6690	7.9	2
0	6691	7.9	2
0	6712	7.95	2
0	6713	7.95	2
0	6714	7.95	2
0	6715	7.95	2
0	6742	8	2
0	6743	8	2
0	6744	8	2
0	6745	8	2
0	6746	8	2
0	6747	8	2
0	6748	8	2
0	6749	8	2
0	6770	8.05	2
0	6771	8.05	2
0	6772	8.05	2
0	6773	8.05	2
0	6786	8.1	2
0	6787	8.1	2
0	6788	8.1	2
0	6789	8.1	2
0	6790	8.1	2
0	6791	8.1	2
0	6792	8.1	2
0	6793	8.1	2
0	6814	8.15	2
0	6815	8.15	2
0	6816	8.15	2
0	6817	8.15	2
0	6830	8.2	2
0	6831	8.2	2
0	6832	8.2	2
0	6833	8.2	2
0	6834	8.2	2
0	6835	8.2	2
0	6836	8.2	2
0	6837	8.2	2
0	6858	8.25	2
0	6859	8.25	2
0	6860	8.25	2
0	6861	8.25	2
0	6874	8.3	2
0	6875	8.3	2
0	6876	8.3	2
0	6877	8.3	2
0	6878	8.3	2
0	6879	8.3	2
0	6880	8.3	2
0	6881	8.3	2
0	6902	8.35	2
0	6903	8.35	2
0	6904	8.35	2
0	6905	8.35	2
0	6921	8.4	2
0	6922	8.4	2
0	6923	8.4	2
0	6924	8.4	2
0	6925	8.4	2
0	6926	8.4	2
0	6927	8.4	2
0	6928	8.4	2
0	6949	8.45	2
0	6950	8.45	2
0	6951	8.45	2
0	6952	8.45	2
0	6965	8.5	2
0	6966	8.5	2
0	6967	8.5	2
0	6968	8.5	2
0	6969	8.5	2
0	6970	8.5	2
0	6971	8.5	2
0	6972	8.5	2
0	6993	8.55	2
0	6994	8.55	2
0	6995	8.55	2
0	6996	8.55	2
0	7009	8.6	2
0	7010	8.6	2
0	7011	8.6	2
0	7012	8.6	2
0	7013	8.6	2
0	7014	8.6	2
0	7015	8.6	2
0	7016	8.6	2
0	7037	8.65	2
0	7038	8.65	2
0	7039	8.65	2
0	7040	8.65	2
0	7067	8.7	2
0	7068	8.7	2
0	7069	8.7	2
0	7070	8.7	2
0	7071	8.7	2
0	7072	8.7	2
0	7073	8.7	2
0	7074	8.7	2
0	7095	8.75	2
0	7096	8.75	2
0	7097	8.75	2
0	7098	8.75	2
0	7111	8.8	2
0	7112	8.8	2
0	7113	8.8	2
0	7114	8.8	2
0	7115	8.8	2
0	7116	8.8	2
0	7117	8.8	2
0	7118	8.8	2
0	7142	8.85	2
0	7143	8.85	2
0	7144	8.85	2
0	7145	8.85	2
0	7172	8.9	2
0	7173	8.9	2
0	7174	8.9	2
0	7175	8.9	2
0	7176	8.9	2
0	7177	8.9	2
0	7178	8.9	2
0	7179	8.9	2
0	7200	8.95	2
0	7201	8.95	2
0	7202	8.95	2
0	7203	8.95	2
0	7216	9	2
0	7217	9	2
0	7218	9	2
0	7219	9	2
0	7220	9	2
0	7221	9	2
0	7222	9	2
0	7223	9	2
0	7258	9.05	2
0	7259	9.05	2
0	7260	9.05	2
0	7261	9.05	2
0	7274	9.1	2
0	7275	9.1	2
0	7276	9.1	2
0	7277	9.1	2
0	7278	9.1	2
0	7279	9.1	2
0	7280	9.1	2
0	7281	9.1	2
0	7302	9.15	2
0	7303	9.15	2
0	7304	9.15	2
0	7305	9.15	2
0	7318	9.2	2
0	7319	9.2	2
0	7320	9.2	2
0	7321	9.2	2
0	7322	9.2	2
0	7323	9.2	2
0	7324	9.2	2
0	7325	9.2	2
0	7360	9.25	2
0	7361	9.25	2
0	7362	9.25	2
0	7363	9.25	2
0	7376	9.3	2
0	7377	9.3	2
0	7378	9.3	2
0	7379	9.3	2
0	7380	9.3	2
0	7381	9.3	2
0	7382	9.3	2
0	7383	9.3	2
0	7404	9.35	2
0	7405	9.35	2
0	7406	9.35	2
0	7407	9.35	2
0	7602	9.4	2
0	7603	9.4	2
0	7604	9.4	2
0	7605	9.4	2
0	7606	9.4	2
0	7607	9.4	2
0	7608	9.4	2
0	7609	9.4	2
0	7660	9.45	2
0	7661	9.45	2
0	7662	9.45	2
0	7663	9.45	2
0	7689	9.5	2
0	7690	9.5	2
0	7691	9.5	2
0	7692	9.5	2
0	7693	9.5	2
0	7694	9.5	2
0	7695	9.5	2
0	7696	9.5	2
0	7748	9.55	2
0	7749	9.55	2
0	7750	9.55	2
0	7751	9.55	2
0	7806	9.6	2
0	7807	9.6	2
0	7808	9.6	2
0	7809	9.6	2
0	7810	9.6	2
0	7811	9.6	2
0	7812	9.6	2
0	7813	9.6	2
0	7867	9.65	2
0	7868	9.65	2
0	7869	9.65	2
0	7870	9.65	2
0	7923	9.7	2
0	7924	9.7	2
0	7925	9.7	2
0	7926	9.7	2
0	7927	9.7	2
0	7928	9.7	2
0	7929	9.7	2
0	7930	9.7	2
0	7986	9.75	2
0	7987	9.75	2
0	7988	9.75	2
0	7989	9.75	2
0	8033	9.8	2
0	8034	9.8	2
0	8035	9.8	2
0	8036	9.8	2
0	8037	9.8	2
0	8038	9.8	2
0	8039	9.8	2
0	8040	9.8	2
0	8089	9.85	2
0	8090	9.85	2
0	8091	9.85	2
0	8092	9.85	2
0	8123	9.9	2
0	8124	9.9	2
0	8125	9.9	2
0	8126	9.9	2
0	8127	9.9	2
0	8128	9.9	2
0	8129	9.9	2
0	8130	9.9	2
0	8191	9.95	2
0	8192	9.95	2
0	8193	9.95	2
0	8194	9.95	2
0	8220	10	2
0	8221	10	2
0	8222	10	2
0	8223	10	2
0	8224	10	2
0	8225	10	2
0	8226	10	2
0	8227	10	2
0	8270	10.05	2
0	8271	10.05	2
0	8272	10.05	2
0	8273	10.05	2
0	8304	10.1	2
0	8305	10.1	2
0	8306	10.1	2
0	8307	10.1	2
0	8308	10.1	2
0	8309	10.1	2
0	8310	10.1	2
0	8311	10.1	2
0	8362	10.15	2
0	8363	10.15	2
0	8364	10.15	2
0	8365	10.15	2
0	8406	10.2	2
0	8407	10.2	2
0	8408	10.2	2
0	8409	10.2	2
0	8410	10.2	2
0	8411	10.2	2
0	8412	10.2	2
0	8413	10.2	2
0	8452	10.25	2
0	8453	10.25	2
0	8454	10.25	2
0	8455	10.25	2
0	8515	10.3	2
0	8516	10.3	2
0	8517	10.3	2
0	8518	10.3	2
0	8519	10.3	2
0	8520	10.3	2
0	8521	10.3	2
0	8522	10.3	2
0	8564	10.35	2
0	8565	10.35	2
0	8566	10.35	2
0	8567	10.35	2
0	8602	10.4	2
0	8603	10.4	2
0	8604	10.4	2
0	8605	10.4	2
0	8606	10.4	2
0	8607	10.4	2
0	8608	10.4	2
0	8609	10.4	2
0	8664	10.45	2
0	8665	10.45	2
0	8666	10.45	2
0	8667	10.45	2
0	8825	10.5	2
0	8826	10.5	2
0	8827	10.5	2
0	8828	10.5	2
0	8829	10.5	2
0	8830	10.5	2
0	8831	10.5	2
0	8832	10.5	2
0	8878	10.55	2
0	8879	10.55	2
0	8880	10.55	2
0	8881	10.55	2
0	8913	10.6	2
0	8914	10.6	2
0	8915	10.6	2
0	8916	10.6	2
0	8917	10.6	2
0	8918	10.6	2
0	8919	10.6	2
0	8920	10.6	2
0	8965	10.65	2
0	8966	10.65	2
0	8967	10.65	2
0	8968	10.65	2
0	9028	10.7	2
0	9029	10.7	2
0	9030	10.7	2
0	9031	10.7	2
0	9032	10.7	2
0	9033	10.7	2
0	9034	10.7	2
0	9035	10.7	2
0	9089	10.75	2
0	9090	10.75	2
0	9091	10.75	2
0	9092	10.75	2
0	9129	10.8	2
0	9130	10.8	2
0	9131	10.8	2
0	9132	10.8	2
0	9133	10.8	2
0	9134	10.8	2
0	9135	10.8	2
0	9136	10.8	2
0	9207	10.85	2
0	9208	10.85	2
0	9209	10.85	2
0	9210	10.85	2
0	9235	10.9	2
0	9236	10.9	2
0	9237	10.9	2
0	9238	10.9	2
0	9239	10.9	2
0	9240	10.9	2
0	9241	10.9	2
0	9242	10.9	2
0	9279	10.95	2
0	9280	10.95	2
0	9281	10.95	2
0	9282	10.95	2
0	9333	11	2
0	9334	11	2
0	9335	11	2
0	9336	11	2
0	9337	11	2
0	9338	11	2
0	9339	11	2
0	9340	11	2
0	9379	11.05	2
0	9380	11.05	2
0	9381	11.05	2
0	9382	11.05	2
0	9405	11.1	2
0	9406	11.1	2
0	9407	11.1	2
0	9408	11.1	2
0	9409	11.1	2
0	9410	11.1	2
0	9411	11.1	2
0	9412	11.1	2
0	9470	11.15	2
0	9471	11.15	2
0	9472	11.15	2
0	9473	11.15	2
0	9511	11.2	2
0	9512	11.2	2
0	9513	11.2	2
0	9514	11.2	2
0	9515	11.2	2
0	9516	11.2	2
0	9517	11.2	2
0	9518	11.2	2
0	9584	11.25	2
0	9585	11.25	2
0	9586	11.25	2
0	9587	11.25	2
0	9614	11.3	2
0	9615	11.3	2
0	9616	11.3	2
0	9617	11.3	2
0	9618	11.3	2
0	9619	11.3	2
0	9620	11.3	2
0	9621	11.3	2
0	9642	11.35	2
0	9643	11.35	2
0	9644	11.35	2
0	9645	11.35	2
0	9668	11.4	2
0	9669	11.4	2
0	9670	11.4	2
0	9671	11.4	2
0	9672	11.4	2
0	9673	11.4	2
0	9674	11.4	2
0	9675	11.4	2
0	9696	11.45	2
0	9697	11.45	2
0	9698	11.45	2
0	9699	11.45	2
0	9712	11.5	2
0	9713	11.5	2
0	9714	11.5	2
0	9715	11.5	2
0	9716	11.5	2
0	9717	11.5	2
0	9718	11.5	2
0	9719	11.5	2
0	9743	11.55	2
0	9744	11.55	2
0	9745	11.55	2
0	9746	11.55	2
0	9759	11.6	2
0	9760	11.6	2
0	9761	11.6	2
0	9762	11.6	2
0	9763	11.6	2
0	9764	11.6	2
0	9765	11.6	2
0	9766	11.6	2
0	9787	11.65	2
0	9788	11.65	2
0	9789	11.65	2
0	9790	11.65	2
0	9803	11.7	2
0	9804	11.7	2
0	9805	11.7	2
0	9806	11.7	2
0	9807	11.7	2
0	9808	11.7	2
0	9809	11.7	2
0	9810	11.7	2
0	9831	11.75	2
0	9832	11.75	2
0	9833	11.75	2
0	9834	11.75	2
0	9861	11.8	2
0	9862	11.8	2
0	9863	11.8	2
0	9864	11.8	2
0	9865	11.8	2
0	9866	11.8	2
0	9867	11.8	2
0	9868	11.8	2
0	9889	11.85	2
0	9890	11.85	2
0	9891	11.85	2
0	9892	11.85	2
0	9905	11.9	2
0	9906	11.9	2
0	9907	11.9	2
0	9908	11.9	2
0	9909	11.9	2
0	9910	11.9	2
0	9911	11.9	2
0	9912	11.9	2
0	9947	11.95	2
0	9948	11.95	2
0	9949	11.95	2
0	9950	11.95	2
0	9963	12	2
0	9964	12	2
0	9965	12	2
0	9966	12	2
0	9967	12	2
0	9968	12	2
0	9969	12	2
0	9970	12	2
0	9991	12.05	2
0	9992	12.05	2
0	9993	12.05	2
0	9994	12.05	2
0	10007	12.1	2
0	10008	12.1	2
0	10009	12.1	2
0	10010	12.1	2
0	10011	12.1	2
0	10012	12.1	2
0	10013	12.1	2
0	10014	12.1	2
0	10035	12.15	2
0	10036	12.15	2
0	10037	12.15	2
0	10038	12.15	2
0	10051	12.2	2
0	10052	12.2	2
0	10053	12.2	2
0	10054	12.2	2
0	10055	12.2	2
0	10056	12.2	2
0	10057	12.2	2
0	10058	12.2	2
0	10082	12.25	2
0	10083	12.25	2
0	10084	12.25	2
0	10085	12.25	2
0	10098	12.3	2
0	10099	12.3	2
0	10100	12.3	2
0	10101	12.3	2
0	10102	12.3	2
0	10103	12.3	2
0	10104	12.3	2
0	10105	12.3	2
0	10136	12.35	2
0	10137	12.35	2
0	10138	12.35	2
0	10139	12.35	2
0	10162	12.4	2
0	10163	12.4	2
0	10164	12.4	2
0	10165	12.4	2
0	10166	12.4	2
0	10167	12.4	2
0	10168	12.4	2
0	10169	12.4	2
0	10200	12.45	2
0	10201	12.45	2
0	10202	12.45	2
0	10203	12.45	2
0	10219	12.5	2
0	10220	12.5	2
0	10221	12.5	2
0	10222	12.5	2
0	10223	12.5	2
0	10224	12.5	2
0	10225	12.5	2
0	10226	12.5	2
0	10247	12.55	2
0	10248	12.55	2
0	10249	12.55	2
0	10250	12.55	2
0	10354	12.6	2
0	10355	12.6	2
0	10356	12.6	2
0	10357	12.6	2
0	10358	12.6	2
0	10359	12.6	2
0	10360	12.6	2
0	10361	12.6	2
0	10407	12.65	2
0	10408	12.65	2
0	10409	12.65	2
0	10410	12.65	2
0	10444	12.7	2
0	10445	12.7	2
0	10446	12.7	2
0	10447	12.7	2
0	10448	12.7	2
0	10449	12.7	2
0	10450	12.7	2
0	10451	12.7	2
0	10512	12.75	2
0	10513	12.75	2
0	10514	12.75	2
0	10515	12.75	2
0	10553	12.8	2
0	10554	12.8	2
0	10555	12.8	2
0	10556	12.8	2
0	10557	12.8	2
0	10558	12.8	2
0	10559	12.8	2
0	10560	12.8	2
0	10593	12.85	2
0	10594	12.85	2
0	10595	12.85	2
0	10596	12.85	2
0	10622	12.9	2
0	10623	12.9	2
0	10624	12.9	2
0	10625	12.9	2
0	10626	12.9	2
0	10627	12.9	2
0	10628	12.9	2
0	10629	12.9	2
0	10671	12.95	2
0	10672	12.95	2
0	10673	12.95	2
0	10674	12.95	2
0	10724	13	2
0	10725	13	2
0	10726	13	2
0	10727	13	2
0	10728	13	2
0	10729	13	2
0	10730	13	2
0	10731	13	2
0	10772	13.05	2
0	10773	13.05	2
0	10774	13.05	2
0	10775	13.05	2
0	10788	13.1	2
0	10789	13.1	2
0	10790	13.1	2
0	10791	13.1	2
0	10792	13.1	2
0	10793	13.1	2
0	10794	13.1	2
0	10795	13.1	2
0	10819	13.15	2
0	10820	13.15	2
0	10821	13.15	2
0	10822	13.15	2
0	10835	13.2	2
0	10836	13.2	2
0	10837	13.2	2
0	10838	13.2	2
0	10839	13.2	2
0	10840	13.2	2
0	10841	13.2	2
0	10842	13.2	2
0	10863	13.25	2
0	10864	13.25	2
0	10865	13.25	2
0	10866	13.25	2
0	10879	13.3	2
0	10880	13.3	2
0	10881	13.3	2
0	10882	13.3	2
0	10883	13.3	2
0	10884	13.3	2
0	10885	13.3	2
0	10886	13.3	2
0	10907	13.35	2
0	10908	13.35	2
0	10909	13.35	2
0	10910	13.35	2
0	10923	13.4	2
0	10924	13.4	2
0	10925	13.4	2
0	10926	13.4	2
0	10927	13.4	2
0	10928	13.4	2
0	10929	13.4	2
0	10930	13.4	2
0	10951	13.45	2
0	10952	13.45	2
0	10953	13.45	2
0	10954	13.45	2
0	10967	13.5	2
0	10968	13.5	2
0	10969	13.5	2
0	10970	13.5	2
0	10971	13.5	2
0	10972	13.5	2
0	10973	13.5	2
0	10974	13.5	2
0	10995	13.55	2
0	10996	13.55	2
0	10997	13.55	2
0	10998	13.55	2
0	11011	13.6	2
0	11012	13.6	2
0	11013	13.6	2
0	11014	13.6	2
0	11015	13.6	2
0	11016	13.6	2
0	11017	13.6	2
0	11018	13.6	2
0	11039	13.65	2
0	11040	13.65	2
0	11041	13.65	2
0	11042	13.65	2
0	11055	13.7	2
0	11056	13.7	2
0	11057	13.7	2
0	11058	13.7	2
0	11059	13.7	2
0	11060	13.7	2
0	11061	13.7	2
0	11062	13.7	2
0	11083	13.75	2
0	11084	13.75	2
0	11085	13.75	2
0	11086	13.75	2
0	11099	13.8	2
0	11100	13.8	2
0	11101	13.8	2
0	11102	13.8	2
0	11103	13.8	2
0	11104	13.8	2
0	11105	13.8	2
0	11106	13.8	2
0	11127	13.85	2
0	11128	13.85	2
0	11129	13.85	2
0	11130	13.85	2
0	11143	13.9	2
0	11144	13.9	2
0	11145	13.9	2
0	11146	13.9	2
0	11147	13.9	2
0	11148	13.9	2
0	11149	13.9	2
0	11150	13.9	2
0	11181	13.95	2
0	11182	13.95	2
0	11183	13.95	2
0	11184	13.95	2
0	11211	14	2
0	11212	14	2
0	11213	14	2
0	11214	14	2
0	11215	14	2
0	11216	14	2
0	11217	14	2
0	11218	14	2
0	11239	14.05	2
0	11240	14.05	2
0	11241	14.05	2
0	11242	14.05	2
0	11269	14.1	2
0	11270	14.1	2
0	11271	14.1	2
0	11272	14.1	2
0	11273	14.1	2
0	11274	14.1	2
0	11275	14.1	2
0	11276	14.1	2
0	11307	14.15	2
0	11308	14.15	2
0	11309	14.15	2
0	11310	14.15	2
0	11333	14.2	2
0	11334	14.2	2
0	11335	14.2	2
0	11336	14.2	2
0	11337	14.2	2
0	11338	14.2	2
0	11339	14.2	2
0	11340	14.2	2
0	11361	14.25	2
0	11362	14.25	2
0	11363	14.25	2
0	11364	14.25	2
0	11377	14.3	2
0	11378	14.3	2
0	11379	14.3	2
0	11380	14.3	2
0	11381	14.3	2
0	11382	14.3	2
0	11383	14.3	2
0	11384	14.3	2
0	11433	14.35	2
0	11434	14.35	2
0	11435	14.35	2
0	11436	14.35	2
0	11449	14.4	2
0	11450	14.4	2
0	11451	14.4	2
0	11452	14.4	2
0	11453	14.4	2
0	11454	14.4	2
0	11455	14.4	2
0	11456	14.4	2
0	11477	14.45	2
0	11478	14.45	2
0	11479	14.45	2
0	11480	14.45	2
0	11506	14.5	2
0	11507	14.5	2
0	11508	14.5	2
0	11509	14.5	2
0	11510	14.5	2
0	11511	14.5	2
0	11512	14.5	2
0	11513	14.5	2
0	11601	14.55	2
0	11602	14.55	2
0	11603	14.55	2
0	11604	14.55	2
0	11650	14.6	2
0	11651	14.6	2
0	11652	14.6	2
0	11653	14.6	2
0	11654	14.6	2
0	11655	14.6	2
0	11656	14.6	2
0	11657	14.6	2
0	11700	14.65	2
0	11701	14.65	2
0	11702	14.65	2
0	11703	14.65	2
0	11753	14.7	2
0	11754	14.7	2
0	11755	14.7	2
0	11756	14.7	2
0	11757	14.7	2
0	11758	14.7	2
0	11759	14.7	2
0	11760	14.7	2
0	11814	14.75	2
0	11815	14.75	2
0	11816	14.75	2
0	11817	14.75	2
0	11863	14.8	2
0	11864	14.8	2
0	11865	14.8	2
0	11866	14.8	2
0	11867	14.8	2
0	11868	14.8	2
0	11869	14.8	2
0	11870	14.8	2
0	11891	14.85	2
0	11892	14.85	2
0	11893	14.85	2
0	11894	14.85	2
0	11910	14.9	2
0	11911	14.9	2
0	11912	14.9	2
0	11913	14.9	2
0	11914	14.9	2
0	11915	14.9	2
0	11916	14.9	2
0	11917	14.9	2
0	11948	14.95	2
0	11949	14.95	2
0	11950	14.95	2
0	11951	14.95	2
0	11968	15	2
0	11969	15	2
0	11970	15	2
0	11971	15	2
0	11972	15	2
0	11973	15	2
0	11974	15	2
0	11975	15	2
0	11996	15.05	2
0	11997	15.05	2
0	11998	15.05	2
0	11999	15.05	2
0	12015	15.1	2
0	12016	15.1	2
0	12017	15.1	2
0	12018	15.1	2
0	12019	15.1	2
0	12020	15.1	2
0	12021	15.1	2
0	12022	15.1	2
0	12043	15.15	2
0	12044	15.15	2
0	12045	15.15	2
0	12046	15.15	2
0	12059	15.2	2
0	12060	15.2	2
0	12061	15.2	2
0	12062	15.2	2
0	12063	15.2	2
0	12064	15.2	2
0	12065	15.2	2
0	12066	15.2	2
0	12087	15.25	2
0	12088	15.25	2
0	12089	15.25	2
0	12090	15.25	2
0	12106	15.3	2
0	12107	15.3	2
0	12108	15.3	2
0	12109	15.3	2
0	12110	15.3	2
0	12111	15.3	2
0	12112	15.3	2
0	12113	15.3	2
0	12134	15.35	2
0	12135	15.35	2
0	12136	15.35	2
0	12137	15.35	2
0	12150	15.4	2
0	12151	15.4	2
0	12152	15.4	2
0	12153	15.4	2
0	12154	15.4	2
0	12155	15.4	2
0	12156	15.4	2
0	12157	15.4	2
0	12178	15.45	2
0	12179	15.45	2
0	12180	15.45	2
0	12181	15.45	2
0	12194	15.5	2
0	12195	15.5	2
0	12196	15.5	2
0	12197	15.5	2
0	12198	15.5	2
0	12199	15.5	2
0	12200	15.5	2
0	12201	15.5	2
0	12222	15.55	2
0	12223	15.55	2
0	12224	15.55	2
0	12225	15.55	2
0	12238	15.6	2
0	12239	15.6	2
0	12240	15.6	2
0	12241	15.6	2
0	12242	15.6	2
0	12243	15.6	2
0	12244	15.6	2
0	12245	15.6	2
0	12266	15.65	2
0	12267	15.65	2
0	12268	15.65	2
0	12269	15.65	2
0	12285	15.7	2
0	12286	15.7	2
0	12287	15.7	2
0	12288	15.7	2
0	12289	15.7	2
0	12290	15.7	2
0	12291	15.7	2
0	12292	15.7	2
0	12313	15.75	2
0	12314	15.75	2
0	12315	15.75	2
0	12316	15.75	2
0	12329	15.8	2
0	12330	15.8	2
0	12331	15.8	2
0	12332	15.8	2
0	12333	15.8	2
0	12334	15.8	2
0	12335	15.8	2
0	12336	15.8	2
0	12357	15.85	2
0	12358	15.85	2
0	12359	15.85	2
0	12360	15.85	2
0	12373	15.9	2
0	12374	15.9	2
0	12375	15.9	2
0	12376	15.9	2
0	12377	15.9	2
0	12378	15.9	2
0	12379	15.9	2
0	12380	15.9	2
0	12401	15.95	2
0	12402	15.95	2
0	12403	15.95	2
0	12404	15.95	2
0	12417	16	2
0	12418	16	2
0	12419	16	2
0	12420	16	2
0	12421	16	2
0	12422	16	2
0	12423	16	2
0	12424	16	2
0	12445	16.05	2
0	12446	16.05	2
0	12447	16.05	2
0	12448	16.05	2
0	12474	16.1	2
0	12475	16.1	2
0	12476	16.1	2
0	12477	16.1	2
0	12478	16.1	2
0	12479	16.1	2
0	12480	16.1	2
0	12481	16.1	2
0	12502	16.15	2
0	12503	16.15	2
0	12504	16.15	2
0	12505	16.15	2
0	12518	16.2	2
0	12519	16.2	2
0	12520	16.2	2
0	12521	16.2	2
0	12522	16.2	2
0	12523	16.2	2
0	12524	16.2	2
0	12525	16.2	2
0	12603	16.25	2
0	12604	16.25	2
0	12605	16.25	2
0	12606	16.25	2
0	12639	16.3	2
0	12640	16.3	2
0	12641	16.3	2
0	12642	16.3	2
0	12643	16.3	2
0	12644	16.3	2
0	12645	16.3	2
0	12646	16.3	2
0	12701	16.35	2
0	12702	16.35	2
0	12703	16.35	2
0	12704	16.35	2
0	12745	16.4	2
0	12746	16.4	2
0	12747	16.4	2
0	12748	16.4	2
0	12749	16.4	2
0	12750	16.4	2
0	12751	16.4	2
0	12752	16.4	2
0	12795	16.45	2
0	12796	16.45	2
0	12797	16.45	2
0	12798	16.45	2
0	12821	16.5	2
0	12822	16.5	2
0	12823	16.5	2
0	12824	16.5	2
0	12825	16.5	2
0	12826	16.5	2
0	12827	16.5	2
0	12828	16.5	2
0	12863	16.55	2
0	12864	16.55	2
0	12865	16.55	2
0	12866	16.55	2
0	12879	16.6	2
0	12880	16.6	2
0	12881	16.6	2
0	12882	16.6	2
0	12883	16.6	2
0	12884	16.6	2
0	12885	16.6	2
0	12886	16.6	2
0	13084	16.65	2
0	13085	16.65	2
0	13086	16.65	2
0	13087	16.65	2
0	13144	16.7	2
0	13145	16.7	2
0	13146	16.7	2
0	13147	16.7	2
0	13148	16.7	2
0	13149	16.7	2
0	13150	16.7	2
0	13151	16.7	2
0	13185	16.75	2
0	13186	16.75	2
0	13187	16.75	2
0	13188	16.75	2
0	13232	16.8	2
0	13233	16.8	2
0	13234	16.8	2
0	13235	16.8	2
0	13236	16.8	2
0	13237	16.8	2
0	13238	16.8	2
0	13239	16.8	2
0	13284	16.85	2
0	13285	16.85	2
0	13286	16.85	2
0	13287	16.85	2
0	13339	16.9	2
0	13340	16.9	2
0	13341	16.9	2
0	13342	16.9	2
0	13343	16.9	2
0	13344	16.9	2
0	13345	16.9	2
0	13346	16.9	2
0	13398	16.95	2
0	13399	16.95	2
0	13400	16.95	2
0	13401	16.95	2
0	13435	17	2
0	13436	17	2
0	13437	17	2
0	13438	17	2
0	13439	17	2
0	13440	17	2
0	13441	17	2
0	13442	17	2
0	13500	17.05	2
0	13501	17.05	2
0	13502	17.05	2
0	13503	17.05	2
0	13540	17.1	2
0	13541	17.1	2
0	13542	17.1	2
0	13543	17.1	2
0	13544	17.1	2
0	13545	17.1	2
0	13546	17.1	2
0	13547	17.1	2
0	13586	17.15	2
0	13587	17.15	2
0	13588	17.15	2
0	13589	17.15	2
0	13626	17.2	2
0	13627	17.2	2
0	13628	17.2	2
0	13629	17.2	2
0	13630	17.2	2
0	13631	17.2	2
0	13632	17.2	2
0	13633	17.2	2
0	13676	17.25	2
0	13677	17.25	2
0	13678	17.25	2
0	13679	17.25	2
0	13714	17.3	2
0	13715	17.3	2
0	13716	17.3	2
0	13717	17.3	2
0	13718	17.3	2
0	13719	17.3	2
0	13720	17.3	2
0	13721	17.3	2
0	13778	17.35	2
0	13779	17.35	2
0	13780	17.35	2
0	13781	17.35	2
0	13830	17.4	2
0	13831	17.4	2
0	13832	17.4	2
0	13833	17.4	2
0	13834	17.4	2
0	13835	17.4	2
0	13836	17.4	2
0	13837	17.4	2
0	13886	17.45	2
0	13887	17.45	2
0	13888	17.45	2
0	13889	17.45	2
0	13920	17.5	2
0	13921	17.5	2
0	13922	17.5	2
0	13923	17.5	2
0	13924	17.5	2
0	13925	17.5	2
0	13926	17.5	2
0	13927	17.5	2
0	13988	17.55	2
0	13989	17.55	2
0	13990	17.55	2
0	13991	17.55	2
0	14022	17.6	2
0	14023	17.6	2
0	14024	17.6	2
0	14025	17.6	2
0	14026	17.6	2
0	14027	17.6	2
0	14028	17.6	2
0	14029	17.6	2
0	14069	17.65	2
0	14070	17.65	2
0	14071	17.65	2
0	14072	17.65	2
0	14100	17.7	2
0	14101	17.7	2
0	14102	17.7	2
0	14103	17.7	2
0	14104	17.7	2
0	14105	17.7	2
0	14106	17.7	2
0	14107	17.7	2
0	14128	17.75	2
0	14129	17.75	2
0	14130	17.75	2
0	14131	17.75	2
0	14154	17.8	2
0	14155	17.8	2
0	14156	17.8	2
0	14157	17.8	2
0	14158	17.8	2
0	14159	17.8	2
0	14160	17.8	2
0	14161	17.8	2
0	14196	17.85	2
0	14197	17.85	2
0	14198	17.85	2
0	14199	17.85	2
0	14212	17.9	2
0	14213	17.9	2
0	14214	17.9	2
0	14215	17.9	2
0	14216	17.9	2
0	14217	17.9	2
0	14218	17.9	2
0	14219	17.9	2
0	14254	17.95	2
0	14255	17.95	2
0	14256	17.95	2
0	14257	17.95	2
0	14284	18	2
0	14285	18	2
0	14286	18	2
0	14287	18	2
0	14288	18	2
0	14289	18	2
0	14290	18	2
0	14291	18	2
0	14312	18.05	2
0	14313	18.05	2
0	14314	18.05	2
0	14315	18.05	2
0	14328	18.1	2
0	14329	18.1	2
0	14330	18.1	2
0	14331	18.1	2
0	14332	18.1	2
0	14333	18.1	2
0	14334	18.1	2
0	14335	18.1	2
0	14356	18.15	2
0	14357	18.15	2
0	14358	18.15	2
0	14359	18.15	2
0	14372	18.2	2
0	14373	18.2	2
0	14374	18.2	2
0	14375	18.2	2
0	14376	18.2	2
0	14377	18.2	2
0	14378	18.2	2
0	14379	18.2	2
0	14400	18.25	2
0	14401	18.25	2
0	14402	18.25	2
0	14403	18.25	2
0	14419	18.3	2
0	14420	18.3	2
0	14421	18.3	2
0	14422	18.3	2
0	14423	18.3	2
0	14424	18.3	2
0	14425	18.3	2
0	14426	18.3	2
0	14450	18.35	2
0	14451	18.35	2
0	14452	18.35	2
0	14453	18.35	2
0	14503	18.4	2
0	14504	18.4	2
0	14505	18.4	2
0	14506	18.4	2
0	14507	18.4	2
0	14508	18.4	2
0	14509	18.4	2
0	14510	18.4	2
0	14559	18.45	2
0	14560	18.45	2
0	14561	18.45	2
0	14562	18.45	2
0	14575	18.5	2
0	14576	18.5	2
0	14577	18.5	2
0	14578	18.5	2
0	14579	18.5	2
0	14580	18.5	2
0	14581	18.5	2
0	14582	18.5	2
0	14617	18.55	2
0	14618	18.55	2
0	14619	18.55	2
0	14620	18.55	2
0	14633	18.6	2
0	14634	18.6	2
0	14635	18.6	2
0	14636	18.6	2
0	14637	18.6	2
0	14638	18.6	2
0	14639	18.6	2
0	14640	18.6	2
0	14664	18.65	2
0	14665	18.65	2
0	14666	18.65	2
0	14667	18.65	2
0	14690	18.7	2
0	14691	18.7	2
0	14692	18.7	2
0	14693	18.7	2
0	14694	18.7	2
0	14695	18.7	2
0	14696	18.7	2
0	14697	18.7	2
0	14718	18.75	2
0	14719	18.75	2
0	14720	18.75	2
0	14721	18.75	2
0	14744	18.8	2
0	14745	18.8	2
0	14746	18.8	2
0	14747	18.8	2
0	14748	18.8	2
0	14749	18.8	2
0	14750	18.8	2
0	14751	18.8	2
0	14786	18.85	2
0	14787	18.85	2
0	14788	18.85	2
0	14789	18.85	2
0	14802	18.9	2
0	14803	18.9	2
0	14804	18.9	2
0	14805	18.9	2
0	14806	18.9	2
0	14807	18.9	2
0	14808	18.9	2
0	14809	18.9	2
0	14870	18.95	2
0	14871	18.95	2
0	14872	18.95	2
0	14873	18.95	2
0	14893	19	2
0	14894	19	2
0	14895	19	2
0	14896	19	2
0	14897	19	2
0	14898	19	2
0	14899	19	2
0	14900	19	2
0	14921	19.05	2
0	14922	19.05	2
0	14923	19.05	2
0	14924	19.05	2
0	14940	19.1	2
0	14941	19.1	2
0	14942	19.1	2
0	14943	19.1	2
0	14944	19.1	2
0	14945	19.1	2
0	14946	19.1	2
0	14947	19.1	2
0	14968	19.15	2
0	14969	19.15	2
0	14970	19.15	2
0	14971	19.15	2
0	14987	19.2	2
0	14988	19.2	2
0	14989	19.2	2
0	14990	19.2	2
0	14991	19.2	2
0	14992	19.2	2
0	14993	19.2	2
0	14994	19.2	2
0	15054	19.25	2
0	15055	19.25	2
0	15056	19.25	2
0	15057	19.25	2
0	15097	19.3	2
0	15098	19.3	2
0	15099	19.3	2
0	15100	19.3	2
0	15101	19.3	2
0	15102	19.3	2
0	15103	19.3	2
0	15104	19.3	2
0	15139	19.35	2
0	15140	19.35	2
0	15141	19.35	2
0	15142	19.35	2
0	15169	19.4	2
0	15170	19.4	2
0	15171	19.4	2
0	15172	19.4	2
0	15173	19.4	2
0	15174	19.4	2
0	15175	19.4	2
0	15176	19.4	2
0	15197	19.45	2
0	15198	19.45	2
0	15199	19.45	2
0	15200	19.45	2
0	15213	19.5	2
0	15214	19.5	2
0	15215	19.5	2
0	15216	19.5	2
0	15217	19.5	2
0	15218	19.5	2
0	15219	19.5	2
0	15220	19.5	2
0	15255	19.55	2
0	15256	19.55	2
0	15257	19.55	2
0	15258	19.55	2
0	15271	19.6	2
0	15272	19.6	2
0	15273	19.6	2
0	15274	19.6	2
0	15275	19.6	2
0	15276	19.6	2
0	15277	19.6	2
0	15278	19.6	2
0	15299	19.65	2
0	15300	19.65	2
0	15301	19.65	2
0	15302	19.65	2
0	15329	19.7	2
0	15330	19.7	2
0	15331	19.7	2
0	15332	19.7	2
0	15333	19.7	2
0	15334	19.7	2
0	15335	19.7	2
0	15336	19.7	2
0	15357	19.75	2
0	15358	19.75	2
0	15359	19.75	2
0	15360	19.75	2
0	15387	19.8	2
0	15388	19.8	2
0	15389	19.8	2
0	15390	19.8	2
0	15391	19.8	2
0	15392	19.8	2
0	15393	19.8	2
0	15394	19.8	2
0	15415	19.85	2
0	15416	19.85	2
0	15417	19.85	2
0	15418	19.85	2
0	15431	19.9	2
0	15432	19.9	2
0	15433	19.9	2
0	15434	19.9	2
0	15435	19.9	2
0	15436	19.9	2
0	15437	19.9	2
0	15438	19.9	2
0	15473	19.95	2
0	15474	19.95	2
0	15475	19.95	2
0	15476	19.95	2
0	15493	20	2
0	15494	20	2
0	15495	20	2
0	15496	20	2
0	15497	20	2
0	15498	20	2
0	15499	20	2
0	15500	20	2
0	15521	20.05	2
0	15522	20.05	2
0	15523	20.05	2
0	15524	20.05	2
0	15547	20.1	2
0	15548	20.1	2
0	15549	20.1	2
0	15550	20.1	2
0	15551	20.1	2
0	15552	20.1	2
0	15553	20.1	2
0	15554	20.1	2
0	15575	20.15	2
0	15576	20.15	2
0	15577	20.15	2
0	15578	20.15	2
0	15591	20.2	2
0	15592	20.2	2
0	15593	20.2	2
0	15594	20.2	2
0	15595	20.2	2
0	15596	20.2	2
0	15597	20.2	2
0	15598	20.2	2
0	15633	20.25	2
0	15634	20.25	2
0	15635	20.25	2
0	15636	20.25	2
0	15649	20.3	2
0	15650	20.3	2
0	15651	20.3	2
0	15652	20.3	2
0	15653	20.3	2
0	15654	20.3	2
0	15655	20.3	2
0	15656	20.3	2
0	15706	20.35	2
0	15707	20.35	2
0	15708	20.35	2
0	15709	20.35	2
0	15736	20.4	2
0	15737	20.4	2
0	15738	20.4	2
0	15739	20.4	2
0	15740	20.4	2
0	15741	20.4	2
0	15742	20.4	2
0	15743	20.4	2
0	15764	20.45	2
0	15765	20.45	2
0	15766	20.45	2
0	15767	20.45	2
0	15783	20.5	2
0	15784	20.5	2
0	15785	20.5	2
0	15786	20.5	2
0	15787	20.5	2
0	15788	20.5	2
0	15789	20.5	2
0	15790	20.5	2
0	15828	20.55	2
0	15829	20.55	2
0	15830	20.55	2
0	15831	20.55	2
0	15844	20.6	2
0	15845	20.6	2
0	15846	20.6	2
0	15847	20.6	2
0	15848	20.6	2
0	15849	20.6	2
0	15850	20.6	2
0	15851	20.6	2
0	15875	20.65	2
0	15876	20.65	2
0	15877	20.65	2
0	15878	20.65	2
0	15905	20.7	2
0	15906	20.7	2
0	15907	20.7	2
0	15908	20.7	2
0	15909	20.7	2
0	15910	20.7	2
0	15911	20.7	2
0	15912	20.7	2
0	15933	20.75	2
0	15934	20.75	2
0	15935	20.75	2
0	15936	20.75	2
0	15949	20.8	2
0	15950	20.8	2
0	15951	20.8	2
0	15952	20.8	2
0	15953	20.8	2
0	15954	20.8	2
0	15955	20.8	2
0	15956	20.8	2
0	15977	20.85	2
0	15978	20.85	2
0	15979	20.85	2
0	15980	20.85	2
0	15993	20.9	2
0	15994	20.9	2
0	15995	20.9	2
0	15996	20.9	2
0	15997	20.9	2
0	15998	20.9	2
0	15999	20.9	2
0	16000	20.9	2
0	16110	20.95	2
0	16111	20.95	2
0	16112	20.95	2
0	16113	20.95	2
0	16130	21	2
0	16131	21	2
0	16132	21	2
0	16133	21	2
0	16134	21	2
0	16135	21	2
0	16136	21	2
0	16137	21	2
0	16176	21.05	2
0	16177	21.05	2
0	16178	21.05	2
0	16179	21.05	2
0	16233	21.1	2
0	16234	21.1	2
0	16235	21.1	2
0	16236	21.1	2
0	16237	21.1	2
0	16238	21.1	2
0	16239	21.1	2
0	16240	21.1	2
0	16280	21.15	2
0	16281	21.15	2
0	16282	21.15	2
0	16283	21.15	2
0	16332	21.2	2
0	16333	21.2	2
0	16334	21.2	2
0	16335	21.2	2
0	16336	21.2	2
0	16337	21.2	2
0	16338	21.2	2
0	16339	21.2	2
0	16382	21.25	2
0	16383	21.25	2
0	16384	21.25	2
0	16385	21.25	2
0	16428	21.3	2
0	16429	21.3	2
0	16430	21.3	2
0	16431	21.3	2
0	16432	21.3	2
0	16433	21.3	2
0	16434	21.3	2
0	16435	21.3	2
0	16469	21.35	2
0	16470	21.35	2
0	16471	21.35	2
0	16472	21.35	2
0	16500	21.4	2
0	16501	21.4	2
0	16502	21.4	2
0	16503	21.4	2
0	16504	21.4	2
0	16505	21.4	2
0	16506	21.4	2
0	16507	21.4	2
0	16528	21.45	2
0	16529	21.45	2
0	16530	21.45	2
0	16531	21.45	2
0	16614	21.5	2
0	16615	21.5	2
0	16616	21.5	2
0	16617	21.5	2
0	16618	21.5	2
0	16619	21.5	2
0	16620	21.5	2
0	16621	21.5	2
0	16669	21.55	2
0	16670	21.55	2
0	16671	21.55	2
0	16672	21.55	2
0	16695	21.6	2
0	16696	21.6	2
0	16697	21.6	2
0	16698	21.6	2
0	16699	21.6	2
0	16700	21.6	2
0	16701	21.6	2
0	16702	21.6	2
0	16757	21.65	2
0	16758	21.65	2
0	16759	21.65	2
0	16760	21.65	2
0	16801	21.7	2
0	16802	21.7	2
0	16803	21.7	2
0	16804	21.7	2
0	16805	21.7	2
0	16806	21.7	2
0	16807	21.7	2
0	16808	21.7	2
0	16850	21.75	2
0	16851	21.75	2
0	16852	21.75	2
0	16853	21.75	2
0	16866	21.8	2
0	16867	21.8	2
0	16868	21.8	2
0	16869	21.8	2
0	16870	21.8	2
0	16871	21.8	2
0	16872	21.8	2
0	16873	21.8	2
0	16897	21.85	2
0	16898	21.85	2
0	16899	21.85	2
0	16900	21.85	2
0	16913	21.9	2
0	16914	21.9	2
0	16915	21.9	2
0	16916	21.9	2
0	16917	21.9	2
0	16918	21.9	2
0	16919	21.9	2
0	16920	21.9	2
0	16955	21.95	2
0	16956	21.95	2
0	16957	21.95	2
0	16958	21.95	2
0	16971	22	2
0	16972	22	2
0	16973	22	2
0	16974	22	2
0	16975	22	2
0	16976	22	2
0	16977	22	2
0	16978	22	2
0	17002	22.05	2
0	17003	22.05	2
0	17004	22.05	2
0	17005	22.05	2
0	17057	22.1	2
0	17058	22.1	2
0	17059	22.1	2
0	17060	22.1	2
0	17061	22.1	2
0	17062	22.1	2
0	17063	22.1	2
0	17064	22.1	2
0	17121	22.15	2
0	17122	22.15	2
0	17123	22.15	2
0	17124	22.15	2
0	17151	22.2	2
0	17152	22.2	2
0	17153	22.2	2
0	17154	22.2	2
0	17155	22.2	2
0	17156	22.2	2
0	17157	22.2	2
0	17158	22.2	2
0	17189	22.25	2
0	17190	22.25	2
0	17191	22.25	2
0	17192	22.25	2
0	17205	22.3	2
0	17206	22.3	2
0	17207	22.3	2
0	17208	22.3	2
0	17209	22.3	2
0	17210	22.3	2
0	17211	22.3	2
0	17212	22.3	2
0	17233	22.35	2
0	17234	22.35	2
0	17235	22.35	2
0	17236	22.35	2
0	17252	22.4	2
0	17253	22.4	2
0	17254	22.4	2
0	17255	22.4	2
0	17256	22.4	2
0	17257	22.4	2
0	17258	22.4	2
0	17259	22.4	2
0	17280	22.45	2
0	17281	22.45	2
0	17282	22.45	2
0	17283	22.45	2
0	17299	22.5	2
0	17300	22.5	2
0	17301	22.5	2
0	17302	22.5	2
0	17303	22.5	2
0	17304	22.5	2
0	17305	22.5	2
0	17306	22.5	2
0	17327	22.55	2
0	17328	22.55	2
0	17329	22.55	2
0	17330	22.55	2
0	17343	22.6	2
0	17344	22.6	2
0	17345	22.6	2
0	17346	22.6	2
0	17347	22.6	2
0	17348	22.6	2
0	17349	22.6	2
0	17350	22.6	2
0	17371	22.65	2
0	17372	22.65	2
0	17373	22.65	2
0	17374	22.65	2
0	17397	22.7	2
0	17398	22.7	2
0	17399	22.7	2
0	17400	22.7	2
0	17401	22.7	2
0	17402	22.7	2
0	17403	22.7	2
0	17404	22.7	2
0	17425	22.75	2
0	17426	22.75	2
0	17427	22.75	2
0	17428	22.75	2
0	17441	22.8	2
0	17442	22.8	2
0	17443	22.8	2
0	17444	22.8	2
0	17445	22.8	2
0	17446	22.8	2
0	17447	22.8	2
0	17448	22.8	2
0	17472	22.85	2
0	17473	22.85	2
0	17474	22.85	2
0	17475	22.85	2
0	17488	22.9	2
0	17489	22.9	2
0	17490	22.9	2
0	17491	22.9	2
0	17492	22.9	2
0	17493	22.9	2
0	17494	22.9	2
0	17495	22.9	2
0	17516	22.95	2
0	17517	22.95	2
0	17518	22.95	2
0	17519	22.95	2
0	17532	23	2
0	17533	23	2
0	17534	23	2
0	17535	23	2
0	17536	23	2
0	17537	23	2
0	17538	23	2
0	17539	23	2
0	17560	23.05	2
0	17561	23.05	2
0	17562	23.05	2
0	17563	23.05	2
0	17576	23.1	2
0	17577	23.1	2
0	17578	23.1	2
0	17579	23.1	2
0	17580	23.1	2
0	17581	23.1	2
0	17582	23.1	2
0	17583	23.1	2
0	17604	23.15	2
0	17605	23.15	2
0	17606	23.15	2
0	17607	23.15	2
0	17620	23.2	2
0	17621	23.2	2
0	17622	23.2	2
0	17623	23.2	2
0	17624	23.2	2
0	17625	23.2	2
0	17626	23.2	2
0	17627	23.2	2
0	17662	23.25	2
0	17663	23.25	2
0	17664	23.25	2
0	17665	23.25	2
0	17678	23.3	2
0	17679	23.3	2
0	17680	23.3	2
0	17681	23.3	2
0	17682	23.3	2
0	17683	23.3	2
0	17684	23.3	2
0	17685	23.3	2
0	17706	23.35	2
0	17707	23.35	2
0	17708	23.35	2
0	17709	23.35	2
0	17725	23.4	2
0	17726	23.4	2
0	17727	23.4	2
0	17728	23.4	2
0	17729	23.4	2
0	17730	23.4	2
0	17731	23.4	2
0	17732	23.4	2
0	17753	23.45	2
0	17754	23.45	2
0	17755	23.45	2
0	17756	23.45	2
0	17769	23.5	2
0	17770	23.5	2
0	17771	23.5	2
0	17772	23.5	2
0	17773	23.5	2
0	17774	23.5	2
0	17775	23.5	2
0	17776	23.5	2
0	17797	23.55	2
0	17798	23.55	2
0	17799	23.55	2
0	17800	23.55	2
0	17813	23.6	2
0	17814	23.6	2
0	17815	23.6	2
0	17816	23.6	2
0	17817	23.6	2
0	17818	23.6	2
0	17819	23.6	2
0	17820	23.6	2
0	17841	23.65	2
0	17842	23.65	2
0	17843	23.65	2
0	17844	23.65	2
0	17860	23.7	2
0	17861	23.7	2
0	17862	23.7	2
0	17863	23.7	2
0	17864	23.7	2
0	17865	23.7	2
0	17866	23.7	2
0	17867	23.7	2
0	17888	23.75	2
0	17889	23.75	2
0	17890	23.75	2
0	17891	23.75	2
0	17904	23.8	2
0	17905	23.8	2
0	17906	23.8	2
0	17907	23.8	2
0	17908	23.8	2
0	17909	23.8	2
0	17910	23.8	2
0	17911	23.8	2
0	17942	23.85	2
0	17943	23.85	2
0	17944	23.85	2
0	17945	23.85	2
0	17958	23.9	2
0	17959	23.9	2
0	17960	23.9	2
0	17961	23.9	2
0	17962	23.9	2
0	17963	23.9	2
0	17964	23.9	2
0	17965	23.9	2
0	17986	23.95	2
0	17987	23.95	2
0	17988	23.95	2
0	17989	23.95	2
0	18012	24	2
0	18013	24	2
0	18014	24	2
0	18015	24	2
0	18016	24	2
0	18017	24	2
0	18018	24	2
0	18019	24	2
0	18040	24.05	2
0	18041	24.05	2
0	18042	24.05	2
0	18043	24.05	2
0	18059	24.1	2
0	18060	24.1	2
0	18061	24.1	2
0	18062	24.1	2
0	18063	24.1	2
0	18064	24.1	2
0	18065	24.1	2
0	18066	24.1	2
0	18087	24.15	2
0	18088	24.15	2
0	18089	24.15	2
0	18090	24.15	2
0	18103	24.2	2
0	18104	24.2	2
0	18105	24.2	2
0	18106	24.2	2
0	18107	24.2	2
0	18108	24.2	2
0	18109	24.2	2
0	18110	24.2	2
0	18131	24.25	2
0	18132	24.25	2
0	18133	24.25	2
0	18134	24.25	2
0	18157	24.3	2
0	18158	24.3	2
0	18159	24.3	2
0	18160	24.3	2
0	18161	24.3	2
0	18162	24.3	2
0	18163	24.3	2
0	18164	24.3	2
0	18185	24.35	2
0	18186	24.35	2
0	18187	24.35	2
0	18188	24.35	2
0	18211	24.4	2
0	18212	24.4	2
0	18213	24.4	2
0	18214	24.4	2
0	18215	24.4	2
0	18216	24.4	2
0	18217	24.4	2
0	18218	24.4	2
0	18253	24.45	2
0	18254	24.45	2
0	18255	24.45	2
0	18256	24.45	2
0	18269	24.5	2
0	18270	24.5	2
0	18271	24.5	2
0	18272	24.5	2
0	18273	24.5	2
0	18274	24.5	2
0	18275	24.5	2
0	18276	24.5	2
0	18300	24.55	2
0	18301	24.55	2
0	18302	24.55	2
0	18303	24.55	2
0	18316	24.6	2
0	18317	24.6	2
0	18318	24.6	2
0	18319	24.6	2
0	18320	24.6	2
0	18321	24.6	2
0	18322	24.6	2
0	18323	24.6	2
0	18344	24.65	2
0	18345	24.65	2
0	18346	24.65	2
0	18347	24.65	2
0	18360	24.7	2
0	18361	24.7	2
0	18362	24.7	2
0	18363	24.7	2
0	18364	24.7	2
0	18365	24.7	2
0	18366	24.7	2
0	18367	24.7	2
0	18388	24.75	2
0	18389	24.75	2
0	18390	24.75	2
0	18391	24.75	2
0	18404	24.8	2
0	18405	24.8	2
0	18406	24.8	2
0	18407	24.8	2
0	18408	24.8	2
0	18409	24.8	2
0	18410	24.8	2
0	18411	24.8	2
0	18463	24.85	2
0	18464	24.85	2
0	18465	24.85	2
0	18466	24.85	2
0	18479	24.9	2
0	18480	24.9	2
0	18481	24.9	2
0	18482	24.9	2
0	18483	24.9	2
0	18484	24.9	2
0	18485	24.9	2
0	18486	24.9	2
0	18507	24.95	2
0	18508	24.95	2
0	18509	24.95	2
0	18510	24.95	2
0	18544	25	2
0	18545	25	2
0	18546	25	2
0	18547	25	2
0	18548	25	2
0	18549	25	2
0	18550	25	2
0	18551	25	2
0	18572	25.05	2
0	18573	25.05	2
0	18574	25.05	2
0	18575	25.05	2
0	18588	25.1	2
0	18589	25.1	2
0	18590	25.1	2
0	18591	25.1	2
0	18592	25.1	2
0	18593	25.1	2
0	18594	25.1	2
0	18595	25.1	2
0	18616	25.15	2
0	18617	25.15	2
0	18618	25.15	2
0	18619	25.15	2
0	18632	25.2	2
0	18633	25.2	2
0	18634	25.2	2
0	18635	25.2	2
0	18636	25.2	2
0	18637	25.2	2
0	18638	25.2	2
0	18639	25.2	2
0	18660	25.25	2
0	18661	25.25	2
0	18662	25.25	2
0	18663	25.25	2
0	18679	25.3	2
0	18680	25.3	2
0	18681	25.3	2
0	18682	25.3	2
0	18683	25.3	2
0	18684	25.3	2
0	18685	25.3	2
0	18686	25.3	2
0	18707	25.35	2
0	18708	25.35	2
0	18709	25.35	2
0	18710	25.35	2
0	18726	25.4	2
0	18727	25.4	2
0	18728	25.4	2
0	18729	25.4	2
0	18730	25.4	2
0	18731	25.4	2
0	18732	25.4	2
0	18733	25.4	2
0	18754	25.45	2
0	18755	25.45	2
0	18756	25.45	2
0	18757	25.45	2
0	18770	25.5	2
0	18771	25.5	2
0	18772	25.5	2
0	18773	25.5	2
0	18774	25.5	2
0	18775	25.5	2
0	18776	25.5	2
0	18777	25.5	2
0	18798	25.55	2
0	18799	25.55	2
0	18800	25.55	2
0	18801	25.55	2
0	18814	25.6	2
0	18815	25.6	2
0	18816	25.6	2
0	18817	25.6	2
0	18818	25.6	2
0	18819	25.6	2
0	18820	25.6	2
0	18821	25.6	2
0	18842	25.65	2
0	18843	25.65	2
0	18844	25.65	2
0	18845	25.65	2
0	18872	25.7	2
0	18873	25.7	2
0	18874	25.7	2
0	18875	25.7	2
0	18876	25.7	2
0	18877	25.7	2
0	18878	25.7	2
0	18879	25.7	2
0	18900	25.75	2
0	18901	25.75	2
0	18902	25.75	2
0	18903	25.75	2
0	18916	25.8	2
0	18917	25.8	2
0	18918	25.8	2
0	18919	25.8	2
0	18920	25.8	2
0	18921	25.8	2
0	18922	25.8	2
0	18923	25.8	2
0	18970	25.85	2
0	18971	25.85	2
0	18972	25.85	2
0	18973	25.85	2
0	18986	25.9	2
0	18987	25.9	2
0	18988	25.9	2
0	18989	25.9	2
0	18990	25.9	2
0	18991	25.9	2
0	18992	25.9	2
0	18993	25.9	2
0	19014	25.95	2
0	19015	25.95	2
0	19016	25.95	2
0	19017	25.95	2
0	19044	26	2
0	19045	26	2
0	19046	26	2
0	19047	26	2
0	19048	26	2
0	19049	26	2
0	19050	26	2
0	19051	26	2
0	19072	26.05	2
0	19073	26.05	2
0	19074	26.05	2
0	19075	26.05	2
0	19088	26.1	2
0	19089	26.1	2
0	19090	26.1	2
0	19091	26.1	2
0	19092	26.1	2
0	19093	26.1	2
0	19094	26.1	2
0	19095	26.1	2
0	19162	26.15	2
0	19163	26.15	2
0	19164	26.15	2
0	19165	26.15	2
0	19205	26.2	2
0	19206	26.2	2
0	19207	26.2	2
0	19208	26.2	2
0	19209	26.2	2
0	19210	26.2	2
0	19211	26.2	2
0	19212	26.2	2
0	19248	26.25	2
0	19249	26.25	2
0	19250	26.25	2
0	19251	26.25	2
0	19264	26.3	2
0	19265	26.3	2
0	19266	26.3	2
0	19267	26.3	2
0	19268	26.3	2
0	19269	26.3	2
0	19270	26.3	2
0	19271	26.3	2
0	19292	26.35	2
0	19293	26.35	2
0	19294	26.35	2
0	19295	26.35	2
0	19311	26.4	2
0	19312	26.4	2
0	19313	26.4	2
0	19314	26.4	2
0	19315	26.4	2
0	19316	26.4	2
0	19317	26.4	2
0	19318	26.4	2
0	19353	26.45	2
0	19354	26.45	2
0	19355	26.45	2
0	19356	26.45	2
0	19369	26.5	2
0	19370	26.5	2
0	19371	26.5	2
0	19372	26.5	2
0	19373	26.5	2
0	19374	26.5	2
0	19375	26.5	2
0	19376	26.5	2
0	19407	26.55	2
0	19408	26.55	2
0	19409	26.55	2
0	19410	26.55	2
0	19501	26.6	2
0	19502	26.6	2
0	19503	26.6	2
0	19504	26.6	2
0	19505	26.6	2
0	19506	26.6	2
0	19507	26.6	2
0	19508	26.6	2
0	19550	26.65	2
0	19551	26.65	2
0	19552	26.65	2
0	19553	26.65	2
0	19582	26.7	2
0	19583	26.7	2
0	19584	26.7	2
0	19585	26.7	2
0	19586	26.7	2
0	19587	26.7	2
0	19588	26.7	2
0	19589	26.7	2
0	19647	26.75	2
0	19648	26.75	2
0	19649	26.75	2
0	19650	26.75	2
0	19677	26.8	2
0	19678	26.8	2
0	19679	26.8	2
0	19680	26.8	2
0	19681	26.8	2
0	19682	26.8	2
0	19683	26.8	2
0	19684	26.8	2
0	19705	26.85	2
0	19706	26.85	2
0	19707	26.85	2
0	19708	26.85	2
0	19721	26.9	2
0	19722	26.9	2
0	19723	26.9	2
0	19724	26.9	2
0	19725	26.9	2
0	19726	26.9	2
0	19727	26.9	2
0	19728	26.9	2
0	19749	26.95	2
0	19750	26.95	2
0	19751	26.95	2
0	19752	26.95	2
0	19779	27	2
0	19780	27	2
0	19781	27	2
0	19782	27	2
0	19783	27	2
0	19784	27	2
0	19785	27	2
0	19786	27	2
0	19807	27.05	2
0	19808	27.05	2
0	19809	27.05	2
0	19810	27.05	2
0	19823	27.1	2
0	19824	27.1	2
0	19825	27.1	2
0	19826	27.1	2
0	19827	27.1	2
0	19828	27.1	2
0	19829	27.1	2
0	19830	27.1	2
0	19854	27.15	2
0	19855	27.15	2
0	19856	27.15	2
0	19857	27.15	2
0	19870	27.2	2
0	19871	27.2	2
0	19872	27.2	2
0	19873	27.2	2
0	19874	27.2	2
0	19875	27.2	2
0	19876	27.2	2
0	19877	27.2	2
0	19898	27.25	2
0	19899	27.25	2
0	19900	27.25	2
0	19901	27.25	2
0	19914	27.3	2
0	19915	27.3	2
0	19916	27.3	2
0	19917	27.3	2
0	19918	27.3	2
0	19919	27.3	2
0	19920	27.3	2
0	19921	27.3	2
0	19942	27.35	2
0	19943	27.35	2
0	19944	27.35	2
0	19945	27.35	2
0	19958	27.4	2
0	19959	27.4	2
0	19960	27.4	2
0	19961	27.4	2
0	19962	27.4	2
0	19963	27.4	2
0	19964	27.4	2
0	19965	27.4	2
0	19986	27.45	2
0	19987	27.45	2
0	19988	27.45	2
0	19989	27.45	2
0	20002	27.5	2
0	20003	27.5	2
0	20004	27.5	2
0	20005	27.5	2
0	20006	27.5	2
0	20007	27.5	2
0	20008	27.5	2
0	20009	27.5	2
0	20030	27.55	2
0	20031	27.55	2
0	20032	27.55	2
0	20033	27.55	2
0	20046	27.6	2
0	20047	27.6	2
0	20048	27.6	2
0	20049	27.6	2
0	20050	27.6	2
0	20051	27.6	2
0	20052	27.6	2
0	20053	27.6	2
0	20074	27.65	2
0	20075	27.65	2
0	20076	27.65	2
0	20077	27.65	2
0	20090	27.7	2
0	20091	27.7	2
0	20092	27.7	2
0	20093	27.7	2
0	20094	27.7	2
0	20095	27.7	2
0	20096	27.7	2
0	20097	27.7	2
0	20118	27.75	2
0	20119	27.75	2
0	20120	27.75	2
0	20121	27.75	2
0	20134	27.8	2
0	20135	27.8	2
0	20136	27.8	2
0	20137	27.8	2
0	20138	27.8	2
0	20139	27.8	2
0	20140	27.8	2
0	20141	27.8	2
0	20176	27.85	2
0	20177	27.85	2
0	20178	27.85	2
0	20179	27.85	2
0	20192	27.9	2
0	20193	27.9	2
0	20194	27.9	2
0	20195	27.9	2
0	20196	27.9	2
0	20197	27.9	2
0	20198	27.9	2
0	20199	27.9	2
0	20220	27.95	2
0	20221	27.95	2
0	20222	27.95	2
0	20223	27.95	2
0	20250	28	2
0	20251	28	2
0	20252	28	2
0	20253	28	2
0	20254	28	2
0	20255	28	2
0	20256	28	2
0	20257	28	2
0	20278	28.05	2
0	20279	28.05	2
0	20280	28.05	2
0	20281	28.05	2
0	20294	28.1	2
0	20295	28.1	2
0	20296	28.1	2
0	20297	28.1	2
0	20298	28.1	2
0	20299	28.1	2
0	20300	28.1	2
0	20301	28.1	2
0	20325	28.15	2
0	20326	28.15	2
0	20327	28.15	2
0	20328	28.15	2
0	20355	28.2	2
0	20356	28.2	2
0	20357	28.2	2
0	20358	28.2	2
0	20359	28.2	2
0	20360	28.2	2
0	20361	28.2	2
0	20362	28.2	2
0	20383	28.25	2
0	20384	28.25	2
0	20385	28.25	2
0	20386	28.25	2
0	20402	28.3	2
0	20403	28.3	2
0	20404	28.3	2
0	20405	28.3	2
0	20406	28.3	2
0	20407	28.3	2
0	20408	28.3	2
0	20409	28.3	2
0	20466	28.35	2
0	20467	28.35	2
0	20468	28.35	2
0	20469	28.35	2
0	20510	28.4	2
0	20511	28.4	2
0	20512	28.4	2
0	20513	28.4	2
0	20514	28.4	2
0	20515	28.4	2
0	20516	28.4	2
0	20517	28.4	2
0	20549	28.45	2
0	20550	28.45	2
0	20551	28.45	2
0	20552	28.45	2
0	20565	28.5	2
0	20566	28.5	2
0	20567	28.5	2
0	20568	28.5	2
0	20569	28.5	2
0	20570	28.5	2
0	20571	28.5	2
0	20572	28.5	2
0	20596	28.55	2
0	20597	28.55	2
0	20598	28.55	2
0	20599	28.55	2
0	20622	28.6	2
0	20623	28.6	2
0	20624	28.6	2
0	20625	28.6	2
0	20626	28.6	2
0	20627	28.6	2
0	20628	28.6	2
0	20629	28.6	2
0	20650	28.65	2
0	20651	28.65	2
0	20652	28.65	2
0	20653	28.65	2
0	20666	28.7	2
0	20667	28.7	2
0	20668	28.7	2
0	20669	28.7	2
0	20670	28.7	2
0	20671	28.7	2
0	20672	28.7	2
0	20673	28.7	2
0	20707	28.75	2
0	20708	28.75	2
0	20709	28.75	2
0	20710	28.75	2
0	20723	28.8	2
0	20724	28.8	2
0	20725	28.8	2
0	20726	28.8	2
0	20727	28.8	2
0	20728	28.8	2
0	20729	28.8	2
0	20730	28.8	2
0	20751	28.85	2
0	20752	28.85	2
0	20753	28.85	2
0	20754	28.85	2
0	20767	28.9	2
0	20768	28.9	2
0	20769	28.9	2
0	20770	28.9	2
0	20771	28.9	2
0	20772	28.9	2
0	20773	28.9	2
0	20774	28.9	2
0	20795	28.95	2
0	20796	28.95	2
0	20797	28.95	2
0	20798	28.95	2
0	20811	29	2
0	20812	29	2
0	20813	29	2
0	20814	29	2
0	20815	29	2
0	20816	29	2
0	20817	29	2
0	20818	29	2
0	20839	29.05	2
0	20840	29.05	2
0	20841	29.05	2
0	20842	29.05	2
0	20855	29.1	2
0	20856	29.1	2
0	20857	29.1	2
0	20858	29.1	2
0	20859	29.1	2
0	20860	29.1	2
0	20861	29.1	2
0	20862	29.1	2
0	20893	29.15	2
0	20894	29.15	2
0	20895	29.15	2
0	20896	29.15	2
0	20909	29.2	2
0	20910	29.2	2
0	20911	29.2	2
0	20912	29.2	2
0	20913	29.2	2
0	20914	29.2	2
0	20915	29.2	2
0	20916	29.2	2
0	20937	29.25	2
0	20938	29.25	2
0	20939	29.25	2
0	20940	29.25	2
0	20963	29.3	2
0	20964	29.3	2
0	20965	29.3	2
0	20966	29.3	2
0	20967	29.3	2
0	20968	29.3	2
0	20969	29.3	2
0	20970	29.3	2
0	20991	29.35	2
0	20992	29.35	2
0	20993	29.35	2
0	20994	29.35	2
0	21007	29.4	2
0	21008	29.4	2
0	21009	29.4	2
0	21010	29.4	2
0	21011	29.4	2
0	21012	29.4	2
0	21013	29.4	2
0	21014	29.4	2
0	21035	29.45	2
0	21036	29.45	2
0	21037	29.45	2
0	21038	29.45	2
0	21051	29.5	2
0	21052	29.5	2
0	21053	29.5	2
0	21054	29.5	2
0	21055	29.5	2
0	21056	29.5	2
0	21057	29.5	2
0	21058	29.5	2
0	21079	29.55	2
0	21080	29.55	2
0	21081	29.55	2
0	21082	29.55	2
0	21095	29.6	2
0	21096	29.6	2
0	21097	29.6	2
0	21098	29.6	2
0	21099	29.6	2
0	21100	29.6	2
0	21101	29.6	2
0	21102	29.6	2
0	21123	29.65	2
0	21124	29.65	2
0	21125	29.65	2
0	21126	29.65	2
0	21153	29.7	2
0	21154	29.7	2
0	21155	29.7	2
0	21156	29.7	2
0	21157	29.7	2
0	21158	29.7	2
0	21159	29.7	2
0	21160	29.7	2
0	21195	29.75	2
0	21196	29.75	2
0	21197	29.75	2
0	21198	29.75	2
0	21211	29.8	2
0	21212	29.8	2
0	21213	29.8	2
0	21214	29.8	2
0	21215	29.8	2
0	21216	29.8	2
0	21217	29.8	2
0	21218	29.8	2
0	21275	29.85	2
0	21276	29.85	2
0	21277	29.85	2
0	21278	29.85	2
0	21337	29.9	2
0	21338	29.9	2
0	21339	29.9	2
0	21340	29.9	2
0	21341	29.9	2
0	21342	29.9	2
0	21343	29.9	2
0	21344	29.9	2
0	21413	29.95	2
0	21414	29.95	2
0	21415	29.95	2
0	21416	29.95	2
0	21446	30	2
0	21447	30	2
0	21448	30	2
0	21449	30	2
0	21450	30	2
0	21451	30	2
0	21452	30	2
0	21453	30	2
0	21474	30.05	2
0	21475	30.05	2
0	21476	30.05	2
0	21477	30.05	2
0	21504	30.1	2
0	21505	30.1	2
0	21506	30.1	2
0	21507	30.1	2
0	21508	30.1	2
0	21509	30.1	2
0	21510	30.1	2
0	21511	30.1	2
0	21546	30.15	2
0	21547	30.15	2
0	21548	30.15	2
0	21549	30.15	2
0	21562	30.2	2
0	21563	30.2	2
0	21564	30.2	2
0	21565	30.2	2
0	21566	30.2	2
0	21567	30.2	2
0	21568	30.2	2
0	21569	30.2	2
0	21604	30.25	2
0	21605	30.25	2
0	21606	30.25	2
0	21607	30.25	2
0	21623	30.3	2
0	21624	30.3	2
0	21625	30.3	2
0	21626	30.3	2
0	21627	30.3	2
0	21628	30.3	2
0	21629	30.3	2
0	21630	30.3	2
0	21651	30.35	2
0	21652	30.35	2
0	21653	30.35	2
0	21654	30.35	2
0	21677	30.4	2
0	21678	30.4	2
0	21679	30.4	2
0	21680	30.4	2
0	21681	30.4	2
0	21682	30.4	2
0	21683	30.4	2
0	21684	30.4	2
0	21705	30.45	2
0	21706	30.45	2
0	21707	30.45	2
0	21708	30.45	2
0	21765	30.5	2
0	21766	30.5	2
0	21767	30.5	2
0	21768	30.5	2
0	21769	30.5	2
0	21770	30.5	2
0	21771	30.5	2
0	21772	30.5	2
0	21822	30.55	2
0	21823	30.55	2
0	21824	30.55	2
0	21825	30.55	2
0	21838	30.6	2
0	21839	30.6	2
0	21840	30.6	2
0	21841	30.6	2
0	21842	30.6	2
0	21843	30.6	2
0	21844	30.6	2
0	21845	30.6	2
0	21880	30.65	2
0	21881	30.65	2
0	21882	30.65	2
0	21883	30.65	2
0	21899	30.7	2
0	21900	30.7	2
0	21901	30.7	2
0	21902	30.7	2
0	21903	30.7	2
0	21904	30.7	2
0	21905	30.7	2
0	21906	30.7	2
0	21927	30.75	2
0	21928	30.75	2
0	21929	30.75	2
0	21930	30.75	2
0	21946	30.8	2
0	21947	30.8	2
0	21948	30.8	2
0	21949	30.8	2
0	21950	30.8	2
0	21951	30.8	2
0	21952	30.8	2
0	21953	30.8	2
0	21974	30.85	2
0	21975	30.85	2
0	21976	30.85	2
0	21977	30.85	2
0	21990	30.9	2
0	21991	30.9	2
0	21992	30.9	2
0	21993	30.9	2
0	21994	30.9	2
0	21995	30.9	2
0	21996	30.9	2
0	21997	30.9	2
0	22018	30.95	2
0	22019	30.95	2
0	22020	30.95	2
0	22021	30.95	2
0	22034	31	2
0	22035	31	2
0	22036	31	2
0	22037	31	2
0	22038	31	2
0	22039	31	2
0	22040	31	2
0	22041	31	2
0	22065	31.05	2
0	22066	31.05	2
0	22067	31.05	2
0	22068	31.05	2
0	22081	31.1	2
0	22082	31.1	2
0	22083	31.1	2
0	22084	31.1	2
0	22085	31.1	2
0	22086	31.1	2
0	22087	31.1	2
0	22088	31.1	2
0	22109	31.15	2
0	22110	31.15	2
0	22111	31.15	2
0	22112	31.15	2
0	22125	31.2	2
0	22126	31.2	2
0	22127	31.2	2
0	22128	31.2	2
0	22129	31.2	2
0	22130	31.2	2
0	22131	31.2	2
0	22132	31.2	2
0	22153	31.25	2
0	22154	31.25	2
0	22155	31.25	2
0	22156	31.25	2
0	22169	31.3	2
0	22170	31.3	2
0	22171	31.3	2
0	22172	31.3	2
0	22173	31.3	2
0	22174	31.3	2
0	22175	31.3	2
0	22176	31.3	2
0	22197	31.35	2
0	22198	31.35	2
0	22199	31.35	2
0	22200	31.35	2
0	22213	31.4	2
0	22214	31.4	2
0	22215	31.4	2
0	22216	31.4	2
0	22217	31.4	2
0	22218	31.4	2
0	22219	31.4	2
0	22220	31.4	2
0	22241	31.45	2
0	22242	31.45	2
0	22243	31.45	2
0	22244	31.45	2
0	22260	31.5	2
0	22261	31.5	2
0	22262	31.5	2
0	22263	31.5	2
0	22264	31.5	2
0	22265	31.5	2
0	22266	31.5	2
0	22267	31.5	2
0	22288	31.55	2
0	22289	31.55	2
0	22290	31.55	2
0	22291	31.55	2
0	22304	31.6	2
0	22305	31.6	2
0	22306	31.6	2
0	22307	31.6	2
0	22308	31.6	2
0	22309	31.6	2
0	22310	31.6	2
0	22311	31.6	2
0	22332	31.65	2
0	22333	31.65	2
0	22334	31.65	2
0	22335	31.65	2
0	22348	31.7	2
0	22349	31.7	2
0	22350	31.7	2
0	22351	31.7	2
0	22352	31.7	2
0	22353	31.7	2
0	22354	31.7	2
0	22355	31.7	2
0	22376	31.75	2
0	22377	31.75	2
0	22378	31.75	2
0	22379	31.75	2
0	22392	31.8	2
0	22393	31.8	2
0	22394	31.8	2
0	22395	31.8	2
0	22396	31.8	2
0	22397	31.8	2
0	22398	31.8	2
0	22399	31.8	2
0	22420	31.85	2
0	22421	31.85	2
0	22422	31.85	2
0	22423	31.85	2
0	22450	31.9	2
0	22451	31.9	2
0	22452	31.9	2
0	22453	31.9	2
0	22454	31.9	2
0	22455	31.9	2
0	22456	31.9	2
0	22457	31.9	2
0	22478	31.95	2
0	22479	31.95	2
0	22480	31.95	2
0	22481	31.95	2
0	22532	32	2
0	22533	32	2
0	22534	32	2
0	22535	32	2
0	22536	32	2
0	22537	32	2
0	22538	32	2
0	22539	32	2
0	22570	32.05	2
0	22571	32.05	2
0	22572	32.05	2
0	22573	32.05	2
0	22586	32.1	2
0	22587	32.1	2
0	22588	32.1	2
0	22589	32.1	2
0	22590	32.1	2
0	22591	32.1	2
0	22592	32.1	2
0	22593	32.1	2
0	22631	32.15	2
0	22632	32.15	2
0	22633	32.15	2
0	22634	32.15	2
0	22647	32.2	2
0	22648	32.2	2
0	22649	32.2	2
0	22650	32.2	2
0	22651	32.2	2
0	22652	32.2	2
0	22653	32.2	2
0	22654	32.2	2
0	22689	32.25	2
0	22690	32.25	2
0	22691	32.25	2
0	22692	32.25	2
0	22719	32.3	2
0	22720	32.3	2
0	22721	32.3	2
0	22722	32.3	2
0	22723	32.3	2
0	22724	32.3	2
0	22725	32.3	2
0	22726	32.3	2
0	22747	32.35	2
0	22748	32.35	2
0	22749	32.35	2
0	22750	32.35	2
0	22793	32.4	2
0	22794	32.4	2
0	22795	32.4	2
0	22796	32.4	2
0	22797	32.4	2
0	22798	32.4	2
0	22799	32.4	2
0	22800	32.4	2
0	22829	32.45	2
0	22830	32.45	2
0	22831	32.45	2
0	22832	32.45	2
0	22845	32.5	2
0	22846	32.5	2
0	22847	32.5	2
0	22848	32.5	2
0	22849	32.5	2
0	22850	32.5	2
0	22851	32.5	2
0	22852	32.5	2
0	22873	32.55	2
0	22874	32.55	2
0	22875	32.55	2
0	22876	32.55	2
0	22889	32.6	2
0	22890	32.6	2
0	22891	32.6	2
0	22892	32.6	2
0	22893	32.6	2
0	22894	32.6	2
0	22895	32.6	2
0	22896	32.6	2
0	22917	32.65	2
0	22918	32.65	2
0	22919	32.65	2
0	22920	32.65	2
0	22947	32.7	2
0	22948	32.7	2
0	22949	32.7	2
0	22950	32.7	2
0	22951	32.7	2
0	22952	32.7	2
0	22953	32.7	2
0	22954	32.7	2
0	22975	32.75	2
0	22976	32.75	2
0	22977	32.75	2
0	22978	32.75	2
0	23001	32.8	2
0	23002	32.8	2
0	23003	32.8	2
0	23004	32.8	2
0	23005	32.8	2
0	23006	32.8	2
0	23007	32.8	2
0	23008	32.8	2
0	23043	32.85	2
0	23044	32.85	2
0	23045	32.85	2
0	23046	32.85	2
0	23059	32.9	2
0	23060	32.9	2
0	23061	32.9	2
0	23062	32.9	2
0	23063	32.9	2
0	23064	32.9	2
0	23065	32.9	2
0	23066	32.9	2
0	23127	32.95	2
0	23128	32.95	2
0	23129	32.95	2
0	23130	32.95	2
0	23150	33	2
0	23151	33	2
0	23152	33	2
0	23153	33	2
0	23154	33	2
0	23155	33	2
0	23156	33	2
0	23157	33	2
0	23178	33.05	2
0	23179	33.05	2
0	23180	33.05	2
0	23181	33.05	2
0	23194	33.1	2
0	23195	33.1	2
0	23196	33.1	2
0	23197	33.1	2
0	23198	33.1	2
0	23199	33.1	2
0	23200	33.1	2
0	23201	33.1	2
0	23222	33.15	2
0	23223	33.15	2
0	23224	33.15	2
0	23225	33.15	2
0	23238	33.2	2
0	23239	33.2	2
0	23240	33.2	2
0	23241	33.2	2
0	23242	33.2	2
0	23243	33.2	2
0	23244	33.2	2
0	23245	33.2	2
0	23280	33.25	2
0	23281	33.25	2
0	23282	33.25	2
0	23283	33.25	2
0	23296	33.3	2
0	23297	33.3	2
0	23298	33.3	2
0	23299	33.3	2
0	23300	33.3	2
0	23301	33.3	2
0	23302	33.3	2
0	23303	33.3	2
0	23338	33.35	2
0	23339	33.35	2
0	23340	33.35	2
0	23341	33.35	2
0	23368	33.4	2
0	23369	33.4	2
0	23370	33.4	2
0	23371	33.4	2
0	23372	33.4	2
0	23373	33.4	2
0	23374	33.4	2
0	23375	33.4	2
0	23396	33.45	2
0	23397	33.45	2
0	23398	33.45	2
0	23399	33.45	2
0	23415	33.5	2
0	23416	33.5	2
0	23417	33.5	2
0	23418	33.5	2
0	23419	33.5	2
0	23420	33.5	2
0	23421	33.5	2
0	23422	33.5	2
0	23443	33.55	2
0	23444	33.55	2
0	23445	33.55	2
0	23446	33.55	2
0	23473	33.6	2
0	23474	33.6	2
0	23475	33.6	2
0	23476	33.6	2
0	23477	33.6	2
0	23478	33.6	2
0	23479	33.6	2
0	23480	33.6	2
0	23504	33.65	2
0	23505	33.65	2
0	23506	33.65	2
0	23507	33.65	2
0	23520	33.7	2
0	23521	33.7	2
0	23522	33.7	2
0	23523	33.7	2
0	23524	33.7	2
0	23525	33.7	2
0	23526	33.7	2
0	23527	33.7	2
0	23562	33.75	2
0	23563	33.75	2
0	23564	33.75	2
0	23565	33.75	2
0	23592	33.8	2
0	23593	33.8	2
0	23594	33.8	2
0	23595	33.8	2
0	23596	33.8	2
0	23597	33.8	2
0	23598	33.8	2
0	23599	33.8	2
0	23620	33.85	2
0	23621	33.85	2
0	23622	33.85	2
0	23623	33.85	2
0	23636	33.9	2
0	23637	33.9	2
0	23638	33.9	2
0	23639	33.9	2
0	23640	33.9	2
0	23641	33.9	2
0	23642	33.9	2
0	23643	33.9	2
0	23678	33.95	2
0	23679	33.95	2
0	23680	33.95	2
0	23681	33.95	2
0	23708	34	2
0	23709	34	2
0	23710	34	2
0	23711	34	2
0	23712	34	2
0	23713	34	2
0	23714	34	2
0	23715	34	2
0	23736	34.05	2
0	23737	34.05	2
0	23738	34.05	2
0	23739	34.05	2
0	23752	34.1	2
0	23753	34.1	2
0	23754	34.1	2
0	23755	34.1	2
0	23756	34.1	2
0	23757	34.1	2
0	23758	34.1	2
0	23759	34.1	2
0	23794	34.15	2
0	23795	34.15	2
0	23796	34.15	2
0	23797	34.15	2
0	23813	34.2	2
0	23814	34.2	2
0	23815	34.2	2
0	23816	34.2	2
0	23817	34.2	2
0	23818	34.2	2
0	23819	34.2	2
0	23820	34.2	2
0	23841	34.25	2
0	23842	34.25	2
0	23843	34.25	2
0	23844	34.25	2
0	23871	34.3	2
0	23872	34.3	2
0	23873	34.3	2
0	23874	34.3	2
0	23875	34.3	2
0	23876	34.3	2
0	23877	34.3	2
0	23878	34.3	2
0	23913	34.35	2
0	23914	34.35	2
0	23915	34.35	2
0	23916	34.35	2
0	23929	34.4	2
0	23930	34.4	2
0	23931	34.4	2
0	23932	34.4	2
0	23933	34.4	2
0	23934	34.4	2
0	23935	34.4	2
0	23936	34.4	2
0	23957	34.45	2
0	23958	34.45	2
0	23959	34.45	2
0	23960	34.45	2
0	23976	34.5	2
0	23977	34.5	2
0	23978	34.5	2
0	23979	34.5	2
0	23980	34.5	2
0	23981	34.5	2
0	23982	34.5	2
0	23983	34.5	2
0	24004	34.55	2
0	24005	34.55	2
0	24006	34.55	2
0	24007	34.55	2
0	24020	34.6	2
0	24021	34.6	2
0	24022	34.6	2
0	24023	34.6	2
0	24024	34.6	2
0	24025	34.6	2
0	24026	34.6	2
0	24027	34.6	2
0	24048	34.65	2
0	24049	34.65	2
0	24050	34.65	2
0	24051	34.65	2
0	24078	34.7	2
0	24079	34.7	2
0	24080	34.7	2
0	24081	34.7	2
0	24082	34.7	2
0	24083	34.7	2
0	24084	34.7	2
0	24085	34.7	2
0	24106	34.75	2
0	24107	34.75	2
0	24108	34.75	2
0	24109	34.75	2
0	24122	34.8	2
0	24123	34.8	2
0	24124	34.8	2
0	24125	34.8	2
0	24126	34.8	2
0	24127	34.8	2
0	24128	34.8	2
0	24129	34.8	2
0	24164	34.85	2
0	24165	34.85	2
0	24166	34.85	2
0	24167	34.85	2
0	24180	34.9	2
0	24181	34.9	2
0	24182	34.9	2
0	24183	34.9	2
0	24184	34.9	2
0	24185	34.9	2
0	24186	34.9	2
0	24187	34.9	2
0	24222	34.95	2
0	24223	34.95	2
0	24224	34.95	2
0	24225	34.95	2
0	24242	35	2
0	24243	35	2
0	24244	35	2
0	24245	35	2
0	24246	35	2
0	24247	35	2
0	24248	35	2
0	24249	35	2
0	24270	35.05	2
0	24271	35.05	2
0	24272	35.05	2
0	24273	35.05	2
0	24312	35.1	2
0	24313	35.1	2
0	24314	35.1	2
0	24315	35.1	2
0	24316	35.1	2
0	24317	35.1	2
0	24318	35.1	2
0	24319	35.1	2
0	24340	35.15	2
0	24341	35.15	2
0	24342	35.15	2
0	24343	35.15	2
0	24356	35.2	2
0	24357	35.2	2
0	24358	35.2	2
0	24359	35.2	2
0	24360	35.2	2
0	24361	35.2	2
0	24362	35.2	2
0	24363	35.2	2
0	24398	35.25	2
0	24399	35.25	2
0	24400	35.25	2
0	24401	35.25	2
0	24414	35.3	2
0	24415	35.3	2
0	24416	35.3	2
0	24417	35.3	2
0	24418	35.3	2
0	24419	35.3	2
0	24420	35.3	2
0	24421	35.3	2
0	24442	35.35	2
0	24443	35.35	2
0	24444	35.35	2
0	24445	35.35	2
0	24468	35.4	2
0	24469	35.4	2
0	24470	35.4	2
0	24471	35.4	2
0	24472	35.4	2
0	24473	35.4	2
0	24474	35.4	2
0	24475	35.4	2
0	24496	35.45	2
0	24497	35.45	2
0	24498	35.45	2
0	24499	35.45	2
0	24526	35.5	2
0	24527	35.5	2
0	24528	35.5	2
0	24529	35.5	2
0	24530	35.5	2
0	24531	35.5	2
0	24532	35.5	2
0	24533	35.5	2
0	24554	35.55	2
0	24555	35.55	2
0	24556	35.55	2
0	24557	35.55	2
0	24573	35.6	2
0	24574	35.6	2
0	24575	35.6	2
0	24576	35.6	2
0	24577	35.6	2
0	24578	35.6	2
0	24579	35.6	2
0	24580	35.6	2
0	24615	35.65	2
0	24616	35.65	2
0	24617	35.65	2
0	24618	35.65	2
0	24631	35.7	2
0	24632	35.7	2
0	24633	35.7	2
0	24634	35.7	2
0	24635	35.7	2
0	24636	35.7	2
0	24637	35.7	2
0	24638	35.7	2
0	24659	35.75	2
0	24660	35.75	2
0	24661	35.75	2
0	24662	35.75	2
0	24728	35.8	2
0	24729	35.8	2
0	24730	35.8	2
0	24731	35.8	2
0	24732	35.8	2
0	24733	35.8	2
0	24734	35.8	2
0	24735	35.8	2
0	24767	35.85	2
0	24768	35.85	2
0	24769	35.85	2
0	24770	35.85	2
0	24783	35.9	2
0	24784	35.9	2
0	24785	35.9	2
0	24786	35.9	2
0	24787	35.9	2
0	24788	35.9	2
0	24789	35.9	2
0	24790	35.9	2
0	24839	35.95	2
0	24840	35.95	2
0	24841	35.95	2
0	24842	35.95	2
0	24855	36	2
0	24856	36	2
0	24857	36	2
0	24858	36	2
0	24859	36	2
0	24860	36	2
0	24861	36	2
0	24862	36	2
0	24886	36.05	2
0	24887	36.05	2
0	24888	36.05	2
0	24889	36.05	2
0	24916	36.1	2
0	24917	36.1	2
0	24918	36.1	2
0	24919	36.1	2
0	24920	36.1	2
0	24921	36.1	2
0	24922	36.1	2
0	24923	36.1	2
0	24954	36.15	2
0	24955	36.15	2
0	24956	36.15	2
0	24957	36.15	2
0	24970	36.2	2
0	24971	36.2	2
0	24972	36.2	2
0	24973	36.2	2
0	24974	36.2	2
0	24975	36.2	2
0	24976	36.2	2
0	24977	36.2	2
0	24998	36.25	2
0	24999	36.25	2
0	25000	36.25	2
0	25001	36.25	2
0	25014	36.3	2
0	25015	36.3	2
0	25016	36.3	2
0	25017	36.3	2
0	25018	36.3	2
0	25019	36.3	2
0	25020	36.3	2
0	25021	36.3	2
0	25076	36.35	2
0	25077	36.35	2
0	25078	36.35	2
0	25079	36.35	2
0	25092	36.4	2
0	25093	36.4	2
0	25094	36.4	2
0	25095	36.4	2
0	25096	36.4	2
0	25097	36.4	2
0	25098	36.4	2
0	25099	36.4	2
0	25120	36.45	2
0	25121	36.45	2
0	25122	36.45	2
0	25123	36.45	2
0	25153	36.5	2
0	25154	36.5	2
0	25155	36.5	2
0	25156	36.5	2
0	25157	36.5	2
0	25158	36.5	2
0	25159	36.5	2
0	25160	36.5	2
0	25181	36.55	2
0	25182	36.55	2
0	25183	36.55	2
0	25184	36.55	2
0	25197	36.6	2
0	25198	36.6	2
0	25199	36.6	2
0	25200	36.6	2
0	25201	36.6	2
0	25202	36.6	2
0	25203	36.6	2
0	25204	36.6	2
0	25228	36.65	2
0	25229	36.65	2
0	25230	36.65	2
0	25231	36.65	2
0	25258	36.7	2
0	25259	36.7	2
0	25260	36.7	2
0	25261	36.7	2
0	25262	36.7	2
0	25263	36.7	2
0	25264	36.7	2
0	25265	36.7	2
0	25286	36.75	2
0	25287	36.75	2
0	25288	36.75	2
0	25289	36.75	2
0	25302	36.8	2
0	25303	36.8	2
0	25304	36.8	2
0	25305	36.8	2
0	25306	36.8	2
0	25307	36.8	2
0	25308	36.8	2
0	25309	36.8	2
0	25330	36.85	2
0	25331	36.85	2
0	25332	36.85	2
0	25333	36.85	2
0	25356	36.9	2
0	25357	36.9	2
0	25358	36.9	2
0	25359	36.9	2
0	25360	36.9	2
0	25361	36.9	2
0	25362	36.9	2
0	25363	36.9	2
0	25384	36.95	2
0	25385	36.95	2
0	25386	36.95	2
0	25387	36.95	2
0	25400	37	2
0	25401	37	2
0	25402	37	2
0	25403	37	2
0	25404	37	2
0	25405	37	2
0	25406	37	2
0	25407	37	2
0	25428	37.05	2
0	25429	37.05	2
0	25430	37.05	2
0	25431	37.05	2
0	25444	37.1	2
0	25445	37.1	2
0	25446	37.1	2
0	25447	37.1	2
0	25448	37.1	2
0	25449	37.1	2
0	25450	37.1	2
0	25451	37.1	2
0	25472	37.15	2
0	25473	37.15	2
0	25474	37.15	2
0	25475	37.15	2
0	25488	37.2	2
0	25489	37.2	2
0	25490	37.2	2
0	25491	37.2	2
0	25492	37.2	2
0	25493	37.2	2
0	25494	37.2	2
0	25495	37.2	2
0	25522	37.25	2
0	25523	37.25	2
0	25524	37.25	2
0	25525	37.25	2
0	25538	37.3	2
0	25539	37.3	2
0	25540	37.3	2
0	25541	37.3	2
0	25542	37.3	2
0	25543	37.3	2
0	25544	37.3	2
0	25545	37.3	2
0	25566	37.35	2
0	25567	37.35	2
0	25568	37.35	2
0	25569	37.35	2
0	25582	37.4	2
0	25583	37.4	2
0	25584	37.4	2
0	25585	37.4	2
0	25586	37.4	2
0	25587	37.4	2
0	25588	37.4	2
0	25589	37.4	2
0	25610	37.45	2
0	25611	37.45	2
0	25612	37.45	2
0	25613	37.45	2
0	25626	37.5	2
0	25627	37.5	2
0	25628	37.5	2
0	25629	37.5	2
0	25630	37.5	2
0	25631	37.5	2
0	25632	37.5	2
0	25633	37.5	2
0	25654	37.55	2
0	25655	37.55	2
0	25656	37.55	2
0	25657	37.55	2
0	25670	37.6	2
0	25671	37.6	2
0	25672	37.6	2
0	25673	37.6	2
0	25674	37.6	2
0	25675	37.6	2
0	25676	37.6	2
0	25677	37.6	2
0	25712	37.65	2
0	25713	37.65	2
0	25714	37.65	2
0	25715	37.65	2
0	25728	37.7	2
0	25729	37.7	2
0	25730	37.7	2
0	25731	37.7	2
0	25732	37.7	2
0	25733	37.7	2
0	25734	37.7	2
0	25735	37.7	2
0	25756	37.75	2
0	25757	37.75	2
0	25758	37.75	2
0	25759	37.75	2
0	25782	37.8	2
0	25783	37.8	2
0	25784	37.8	2
0	25785	37.8	2
0	25786	37.8	2
0	25787	37.8	2
0	25788	37.8	2
0	25789	37.8	2
0	25810	37.85	2
0	25811	37.85	2
0	25812	37.85	2
0	25813	37.85	2
0	25826	37.9	2
0	25827	37.9	2
0	25828	37.9	2
0	25829	37.9	2
0	25830	37.9	2
0	25831	37.9	2
0	25832	37.9	2
0	25833	37.9	2
0	25868	37.95	2
0	25869	37.95	2
0	25870	37.95	2
0	25871	37.95	2
0	25884	38	2
0	25885	38	2
0	25886	38	2
0	25887	38	2
0	25888	38	2
0	25889	38	2
0	25890	38	2
0	25891	38	2
0	25912	38.05	2
0	25913	38.05	2
0	25914	38.05	2
0	25915	38.05	2
0	25952	38.1	2
0	25953	38.1	2
0	25954	38.1	2
0	25955	38.1	2
0	25956	38.1	2
0	25957	38.1	2
0	25958	38.1	2
0	25959	38.1	2
0	25980	38.15	2
0	25981	38.15	2
0	25982	38.15	2
0	25983	38.15	2
0	25999	38.2	2
0	26000	38.2	2
0	26001	38.2	2
0	26002	38.2	2
0	26003	38.2	2
0	26004	38.2	2
0	26005	38.2	2
0	26006	38.2	2
0	26041	38.25	2
0	26042	38.25	2
0	26043	38.25	2
0	26044	38.25	2
0	26057	38.3	2
0	26058	38.3	2
0	26059	38.3	2
0	26060	38.3	2
0	26061	38.3	2
0	26062	38.3	2
0	26063	38.3	2
0	26064	38.3	2
0	26085	38.35	2
0	26086	38.35	2
0	26087	38.35	2
0	26088	38.35	2
0	26101	38.4	2
0	26102	38.4	2
0	26103	38.4	2
0	26104	38.4	2
0	26105	38.4	2
0	26106	38.4	2
0	26107	38.4	2
0	26108	38.4	2
0	26129	38.45	2
0	26130	38.45	2
0	26131	38.45	2
0	26132	38.45	2
0	26165	38.5	2
0	26166	38.5	2
0	26167	38.5	2
0	26168	38.5	2
0	26169	38.5	2
0	26170	38.5	2
0	26171	38.5	2
0	26172	38.5	2
0	26193	38.55	2
0	26194	38.55	2
0	26195	38.55	2
0	26196	38.55	2
0	26209	38.6	2
0	26210	38.6	2
0	26211	38.6	2
0	26212	38.6	2
0	26213	38.6	2
0	26214	38.6	2
0	26215	38.6	2
0	26216	38.6	2
0	26268	38.65	2
0	26269	38.65	2
0	26270	38.65	2
0	26271	38.65	2
0	26284	38.7	2
0	26285	38.7	2
0	26286	38.7	2
0	26287	38.7	2
0	26288	38.7	2
0	26289	38.7	2
0	26290	38.7	2
0	26291	38.7	2
0	26312	38.75	2
0	26313	38.75	2
0	26314	38.75	2
0	26315	38.75	2
0	26342	38.8	2
0	26343	38.8	2
0	26344	38.8	2
0	26345	38.8	2
0	26346	38.8	2
0	26347	38.8	2
0	26348	38.8	2
0	26349	38.8	2
0	26370	38.85	2
0	26371	38.85	2
0	26372	38.85	2
0	26373	38.85	2
0	26386	38.9	2
0	26387	38.9	2
0	26388	38.9	2
0	26389	38.9	2
0	26390	38.9	2
0	26391	38.9	2
0	26392	38.9	2
0	26393	38.9	2
0	26414	38.95	2
0	26415	38.95	2
0	26416	38.95	2
0	26417	38.95	2
0	26430	39	2
0	26431	39	2
0	26432	39	2
0	26433	39	2
0	26434	39	2
0	26435	39	2
0	26436	39	2
0	26437	39	2
0	26472	39.05	2
0	26473	39.05	2
0	26474	39.05	2
0	26475	39.05	2
0	26488	39.1	2
0	26489	39.1	2
0	26490	39.1	2
0	26491	39.1	2
0	26492	39.1	2
0	26493	39.1	2
0	26494	39.1	2
0	26495	39.1	2
0	26516	39.15	2
0	26517	39.15	2
0	26518	39.15	2
0	26519	39.15	2
0	26549	39.2	2
0	26550	39.2	2
0	26551	39.2	2
0	26552	39.2	2
0	26553	39.2	2
0	26554	39.2	2
0	26555	39.2	2
0	26556	39.2	2
0	26577	39.25	2
0	26578	39.25	2
0	26579	39.25	2
0	26580	39.25	2
0	26593	39.3	2
0	26594	39.3	2
0	26595	39.3	2
0	26596	39.3	2
0	26597	39.3	2
0	26598	39.3	2
0	26599	39.3	2
0	26600	39.3	2
0	26621	39.35	2
0	26622	39.35	2
0	26623	39.35	2
0	26624	39.35	2
0	26647	39.4	2
0	26648	39.4	2
0	26649	39.4	2
0	26650	39.4	2
0	26651	39.4	2
0	26652	39.4	2
0	26653	39.4	2
0	26654	39.4	2
0	26675	39.45	2
0	26676	39.45	2
0	26677	39.45	2
0	26678	39.45	2
0	26691	39.5	2
0	26692	39.5	2
0	26693	39.5	2
0	26694	39.5	2
0	26695	39.5	2
0	26696	39.5	2
0	26697	39.5	2
0	26698	39.5	2
0	26722	39.55	2
0	26723	39.55	2
0	26724	39.55	2
0	26725	39.55	2
0	26748	39.6	2
0	26749	39.6	2
0	26750	39.6	2
0	26751	39.6	2
0	26752	39.6	2
0	26753	39.6	2
0	26754	39.6	2
0	26755	39.6	2
0	26776	39.65	2
0	26777	39.65	2
0	26778	39.65	2
0	26779	39.65	2
0	26792	39.7	2
0	26793	39.7	2
0	26794	39.7	2
0	26795	39.7	2
0	26796	39.7	2
0	26797	39.7	2
0	26798	39.7	2
0	26799	39.7	2
0	26830	39.75	2
0	26831	39.75	2
0	26832	39.75	2
0	26833	39.75	2
0	26846	39.8	2
0	26847	39.8	2
0	26848	39.8	2
0	26849	39.8	2
0	26850	39.8	2
0	26851	39.8	2
0	26852	39.8	2
0	26853	39.8	2
0	26874	39.85	2
0	26875	39.85	2
0	26876	39.85	2
0	26877	39.85	2
0	26890	39.9	2
0	26891	39.9	2
0	26892	39.9	2
0	26893	39.9	2
0	26894	39.9	2
0	26895	39.9	2
0	26896	39.9	2
0	26897	39.9	2
0	26918	39.95	2
0	26919	39.95	2
0	26920	39.95	2
0	26921	39.95	2
0	26938	40	2
0	26939	40	2
0	26940	40	2
0	26941	40	2
0	26942	40	2
0	26943	40	2
0	26944	40	2
0	26945	40	2
0	26966	40.05	2
0	26967	40.05	2
0	26968	40.05	2
0	26969	40.05	2
0	26996	40.1	2
0	26997	40.1	2
0	26998	40.1	2
0	26999	40.1	2
0	27000	40.1	2
0	27001	40.1	2
0	27002	40.1	2
0	27003	40.1	2
0	27027	40.15	2
0	27028	40.15	2
0	27029	40.15	2
0	27030	40.15	2
0	27043	40.2	2
0	27044	40.2	2
0	27045	40.2	2
0	27046	40.2	2
0	27047	40.2	2
0	27048	40.2	2
0	27049	40.2	2
0	27050	40.2	2
0	27085	40.25	2
0	27086	40.25	2
0	27087	40.25	2
0	27088	40.25	2
0	27101	40.3	2
0	27102	40.3	2
0	27103	40.3	2
0	27104	40.3	2
0	27105	40.3	2
0	27106	40.3	2
0	27107	40.3	2
0	27108	40.3	2
0	27129	40.35	2
0	27130	40.35	2
0	27131	40.35	2
0	27132	40.35	2
0	27148	40.4	2
0	27149	40.4	2
0	27150	40.4	2
0	27151	40.4	2
0	27152	40.4	2
0	27153	40.4	2
0	27154	40.4	2
0	27155	40.4	2
0	27176	40.45	2
0	27177	40.45	2
0	27178	40.45	2
0	27179	40.45	2
0	27192	40.5	2
0	27193	40.5	2
0	27194	40.5	2
0	27195	40.5	2
0	27196	40.5	2
0	27197	40.5	2
0	27198	40.5	2
0	27199	40.5	2
0	27220	40.55	2
0	27221	40.55	2
0	27222	40.55	2
0	27223	40.55	2
0	27236	40.6	2
0	27237	40.6	2
0	27238	40.6	2
0	27239	40.6	2
0	27240	40.6	2
0	27241	40.6	2
0	27242	40.6	2
0	27243	40.6	2
0	27267	40.65	2
0	27268	40.65	2
0	27269	40.65	2
0	27270	40.65	2
0	27283	40.7	2
0	27284	40.7	2
0	27285	40.7	2
0	27286	40.7	2
0	27287	40.7	2
0	27288	40.7	2
0	27289	40.7	2
0	27290	40.7	2
0	27311	40.75	2
0	27312	40.75	2
0	27313	40.75	2
0	27314	40.75	2
0	27341	40.8	2
0	27342	40.8	2
0	27343	40.8	2
0	27344	40.8	2
0	27345	40.8	2
0	27346	40.8	2
0	27347	40.8	2
0	27348	40.8	2
0	27369	40.85	2
0	27370	40.85	2
0	27371	40.85	2
0	27372	40.85	2
0	27385	40.9	2
0	27386	40.9	2
0	27387	40.9	2
0	27388	40.9	2
0	27389	40.9	2
0	27390	40.9	2
0	27391	40.9	2
0	27392	40.9	2
0	27423	40.95	2
0	27424	40.95	2
0	27425	40.95	2
0	27426	40.95	2
0	27453	41	2
0	27454	41	2
0	27455	41	2
0	27456	41	2
0	27457	41	2
0	27458	41	2
0	27459	41	2
0	27460	41	2
0	27481	41.05	2
0	27482	41.05	2
0	27483	41.05	2
0	27484	41.05	2
0	27497	41.1	2
0	27498	41.1	2
0	27499	41.1	2
0	27500	41.1	2
0	27501	41.1	2
0	27502	41.1	2
0	27503	41.1	2
0	27504	41.1	2
0	27539	41.15	2
0	27540	41.15	2
0	27541	41.15	2
0	27542	41.15	2
0	27555	41.2	2
0	27556	41.2	2
0	27557	41.2	2
0	27558	41.2	2
0	27559	41.2	2
0	27560	41.2	2
0	27561	41.2	2
0	27562	41.2	2
0	27583	41.25	2
0	27584	41.25	2
0	27585	41.25	2
0	27586	41.25	2
0	27599	41.3	2
0	27600	41.3	2
0	27601	41.3	2
0	27602	41.3	2
0	27603	41.3	2
0	27604	41.3	2
0	27605	41.3	2
0	27606	41.3	2
0	27633	41.35	2
0	27634	41.35	2
0	27635	41.35	2
0	27636	41.35	2
0	27649	41.4	2
0	27650	41.4	2
0	27651	41.4	2
0	27652	41.4	2
0	27653	41.4	2
0	27654	41.4	2
0	27655	41.4	2
0	27656	41.4	2
0	27677	41.45	2
0	27678	41.45	2
0	27679	41.45	2
0	27680	41.45	2
0	27693	41.5	2
0	27694	41.5	2
0	27695	41.5	2
0	27696	41.5	2
0	27697	41.5	2
0	27698	41.5	2
0	27699	41.5	2
0	27700	41.5	2
0	27724	41.55	2
0	27725	41.55	2
0	27726	41.55	2
0	27727	41.55	2
0	27740	41.6	2
0	27741	41.6	2
0	27742	41.6	2
0	27743	41.6	2
0	27744	41.6	2
0	27745	41.6	2
0	27746	41.6	2
0	27747	41.6	2
0	27768	41.65	2
0	27769	41.65	2
0	27770	41.65	2
0	27771	41.65	2
0	27784	41.7	2
0	27785	41.7	2
0	27786	41.7	2
0	27787	41.7	2
0	27788	41.7	2
0	27789	41.7	2
0	27790	41.7	2
0	27791	41.7	2
0	27822	41.75	2
0	27823	41.75	2
0	27824	41.75	2
0	27825	41.75	2
0	27838	41.8	2
0	27839	41.8	2
0	27840	41.8	2
0	27841	41.8	2
0	27842	41.8	2
0	27843	41.8	2
0	27844	41.8	2
0	27845	41.8	2
0	27880	41.85	2
0	27881	41.85	2
0	27882	41.85	2
0	27883	41.85	2
0	27910	41.9	2
0	27911	41.9	2
0	27912	41.9	2
0	27913	41.9	2
0	27914	41.9	2
0	27915	41.9	2
0	27916	41.9	2
0	27917	41.9	2
0	27938	41.95	2
0	27939	41.95	2
0	27940	41.95	2
0	27941	41.95	2
0	27964	42	2
0	27965	42	2
0	27966	42	2
0	27967	42	2
0	27968	42	2
0	27969	42	2
0	27970	42	2
0	27971	42	2
0	27992	42.05	2
0	27993	42.05	2
0	27994	42.05	2
0	27995	42.05	2
0	28008	42.1	2
0	28009	42.1	2
0	28010	42.1	2
0	28011	42.1	2
0	28012	42.1	2
0	28013	42.1	2
0	28014	42.1	2
0	28015	42.1	2
0	28036	42.15	2
0	28037	42.15	2
0	28038	42.15	2
0	28039	42.15	2
0	28052	42.2	2
0	28053	42.2	2
0	28054	42.2	2
0	28055	42.2	2
0	28056	42.2	2
0	28057	42.2	2
0	28058	42.2	2
0	28059	42.2	2
0	28080	42.25	2
0	28081	42.25	2
0	28082	42.25	2
0	28083	42.25	2
0	28099	42.3	2
0	28100	42.3	2
0	28101	42.3	2
0	28102	42.3	2
0	28103	42.3	2
0	28104	42.3	2
0	28105	42.3	2
0	28106	42.3	2
0	28127	42.35	2
0	28128	42.35	2
0	28129	42.35	2
0	28130	42.35	2
0	28157	42.4	2
0	28158	42.4	2
0	28159	42.4	2
0	28160	42.4	2
0	28161	42.4	2
0	28162	42.4	2
0	28163	42.4	2
0	28164	42.4	2
0	28185	42.45	2
0	28186	42.45	2
0	28187	42.45	2
0	28188	42.45	2
0	28201	42.5	2
0	28202	42.5	2
0	28203	42.5	2
0	28204	42.5	2
0	28205	42.5	2
0	28206	42.5	2
0	28207	42.5	2
0	28208	42.5	2
0	28235	42.55	2
0	28236	42.55	2
0	28237	42.55	2
0	28238	42.55	2
0	28251	42.6	2
0	28252	42.6	2
0	28253	42.6	2
0	28254	42.6	2
0	28255	42.6	2
0	28256	42.6	2
0	28257	42.6	2
0	28258	42.6	2
0	28279	42.65	2
0	28280	42.65	2
0	28281	42.65	2
0	28282	42.65	2
0	28295	42.7	2
0	28296	42.7	2
0	28297	42.7	2
0	28298	42.7	2
0	28299	42.7	2
0	28300	42.7	2
0	28301	42.7	2
0	28302	42.7	2
0	28337	42.75	2
0	28338	42.75	2
0	28339	42.75	2
0	28340	42.75	2
0	28353	42.8	2
0	28354	42.8	2
0	28355	42.8	2
0	28356	42.8	2
0	28357	42.8	2
0	28358	42.8	2
0	28359	42.8	2
0	28360	42.8	2
0	28381	42.85	2
0	28382	42.85	2
0	28383	42.85	2
0	28384	42.85	2
0	28400	42.9	2
0	28401	42.9	2
0	28402	42.9	2
0	28403	42.9	2
0	28404	42.9	2
0	28405	42.9	2
0	28406	42.9	2
0	28407	42.9	2
0	28442	42.95	2
0	28443	42.95	2
0	28444	42.95	2
0	28445	42.95	2
0	28458	43	2
0	28459	43	2
0	28460	43	2
0	28461	43	2
0	28462	43	2
0	28463	43	2
0	28464	43	2
0	28465	43	2
0	28486	43.05	2
0	28487	43.05	2
0	28488	43.05	2
0	28489	43.05	2
0	28516	43.1	2
0	28517	43.1	2
0	28518	43.1	2
0	28519	43.1	2
0	28520	43.1	2
0	28521	43.1	2
0	28522	43.1	2
0	28523	43.1	2
0	28544	43.15	2
0	28545	43.15	2
0	28546	43.15	2
0	28547	43.15	2
0	28560	43.2	2
0	28561	43.2	2
0	28562	43.2	2
0	28563	43.2	2
0	28564	43.2	2
0	28565	43.2	2
0	28566	43.2	2
0	28567	43.2	2
0	28588	43.25	2
0	28589	43.25	2
0	28590	43.25	2
0	28591	43.25	2
0	28604	43.3	2
0	28605	43.3	2
0	28606	43.3	2
0	28607	43.3	2
0	28608	43.3	2
0	28609	43.3	2
0	28610	43.3	2
0	28611	43.3	2
0	28632	43.35	2
0	28633	43.35	2
0	28634	43.35	2
0	28635	43.35	2
0	28648	43.4	2
0	28649	43.4	2
0	28650	43.4	2
0	28651	43.4	2
0	28652	43.4	2
0	28653	43.4	2
0	28654	43.4	2
0	28655	43.4	2
0	28676	43.45	2
0	28677	43.45	2
0	28678	43.45	2
0	28679	43.45	2
0	28720	43.5	2
0	28721	43.5	2
0	28722	43.5	2
0	28723	43.5	2
0	28724	43.5	2
0	28725	43.5	2
0	28726	43.5	2
0	28727	43.5	2
0	28748	43.55	2
0	28749	43.55	2
0	28750	43.55	2
0	28751	43.55	2
0	28764	43.6	2
0	28765	43.6	2
0	28766	43.6	2
0	28767	43.6	2
0	28768	43.6	2
0	28769	43.6	2
0	28770	43.6	2
0	28771	43.6	2
0	28798	43.65	2
0	28799	43.65	2
0	28800	43.65	2
0	28801	43.65	2
0	28814	43.7	2
0	28815	43.7	2
[...]
2	10660	12.924750839471	42723
2	10667	12.938590839471	42864
2	10692	12.952430839471	43005
2	10703	12.966270839471	43146
2	10713	12.980110839471	43287
2	10720	12.993950839471	43428
2	10755	13.007790839471	43569
2	10765	13.021630839471	43710
2	11587	14.528750839471	43851
2	11597	14.542590839471	43992
2	11620	14.556430839471	44133
2	11630	14.570270839471	44274
2	11637	14.584110839471	44415
2	11647	14.597950839471	44556
2	11686	14.625630839471	44697
2	11696	14.639470839471	44838
2	11721	14.653310839471	44979
2	11735	14.667150839471	45120
2	11745	14.680990839471	45261
2	11786	14.708670839471	45402
2	11796	14.722510839471	45543
2	11806	14.736350839471	45684
2	11832	14.750190839471	45825
2	11842	14.764030839471	45966
2	12596	16.242590839471	46107
2	12625	16.270270839471	46248
2	12636	16.297950839471	46389
2	12674	16.311790839471	46530
2	12684	16.325630839471	46671
2	12694	16.339470839471	46812
2	12721	16.367150839471	46953
2	12731	16.380990839471	47094
2	12741	16.394830839471	47235
2	12776	16.408670839471	47376
2	12787	16.436350839471	47517
2	13080	16.642590839471	47658
2	13122	16.670270839471	47799
2	13134	16.684110839471	47940
2	13141	16.697950839471	48081
2	13177	16.725630839471	48222
2	13204	16.753310839471	48363
2	13214	16.767150839471	48504
2	13224	16.780990839471	48645
2	13278	16.822510839471	48786
2	13302	16.850190839471	48927
2	13312	16.864030839471	49068
2	13322	16.877870839471	49209
2	13332	16.891710839471	49350
2	13370	16.905550839471	49491
2	13380	16.919390839471	49632
2	13391	16.947070839471	49773
2	13417	16.960910839471	49914
2	13427	16.974750839471	50055
2	13468	17.002430839471	50196
2	13485	17.016270839471	50337
2	13495	17.030110839471	50478
2	13522	17.071630839471	50619
2	13532	17.085470839471	50760
2	13571	17.113150839471	50901
2	13582	17.140830839471	51042
2	13607	17.154670839471	51183
2	13619	17.196190839471	51324
2	13666	17.210030839471	51465
2	13695	17.251550839471	51606
2	13705	17.265390839471	51747
2	13745	17.306910839471	51888
2	13755	17.320750839471	52029
2	13765	17.334590839471	52170
2	13775	17.348430839471	52311
2	13816	17.376110839471	52452
2	13826	17.389950839471	52593
2	13861	17.403790839471	52734
2	13869	17.431470839471	52875
2	13879	17.445310839471	53016
2	13905	17.459150839471	53157
2	13915	17.472990839471	53298
2	13951	17.500670839471	53439
2	13961	17.514510839471	53580
2	13971	17.528350839471	53721
2	13981	17.542190839471	53862
2	14007	17.556030839471	54003
2	14019	17.597550839471	54144
2	14054	17.611390839471	54285
2	14065	17.639070839471	54426
2	14089	17.666750839471	54567
2	14495	18.378750839471	54708
2	14534	18.406430839471	54849
2	14544	18.420270839471	54990
2	14551	18.434110839471	55131
2	14853	18.928750839471	55272
2	14863	18.942590839471	55413
2	14889	18.956430839471	55554
2	15046	19.228750839471	55695
2	15073	19.256430839471	55836
2	15083	19.270270839471	55977
2	15094	19.297950839471	56118
2	15132	19.311790839471	56259
2	15699	20.342590839471	56400
2	16103	20.942590839471	56541
2	16161	21.011790839471	56682
2	16168	21.025630839471	56823
2	16216	21.080990839471	56964
2	16226	21.094830839471	57105
2	16265	21.122510839471	57246
2	16275	21.136350839471	57387
2	16298	21.150190839471	57528
2	16308	21.164030839471	57669
2	16318	21.177870839471	57810
2	16328	21.191710839471	57951
2	16367	21.219390839471	58092
2	16378	21.247070839471	58233
2	16401	21.260910839471	58374
2	16411	21.274750839471	58515
2	16421	21.288590839471	58656
2	16462	21.343950839471	58797
2	16488	21.357790839471	58938
2	16597	21.478750839471	59079
2	16607	21.492590839471	59220
2	16645	21.506430839471	59361
2	16655	21.520270839471	59502
2	16666	21.547950839471	59643
2	16689	21.561790839471	59784
2	16736	21.617150839471	59925
2	16743	21.630990839471	60066
2	16750	21.644830839471	60207
2	16776	21.658670839471	60348
2	16783	21.672510839471	60489
2	16793	21.686350839471	60630
2	16831	21.700190839471	60771
2	16841	21.714030839471	60912
2	17050	22.092590839471	61053
2	17088	22.106430839471	61194
2	17098	22.120270839471	61335
2	17108	22.134110839471	61476
2	17118	22.147950839471	61617
2	17144	22.161790839471	61758
2	18963	25.828750839471	61899
2	19145	26.128750839471	62040
2	19155	26.142590839471	62181
2	19181	26.156430839471	62322
2	19188	26.170270839471	62463
2	19195	26.184110839471	62604
2	19202	26.197950839471	62745
2	19484	26.578750839471	62886
2	19494	26.592590839471	63027
2	19532	26.606430839471	63168
2	19540	26.634110839471	63309
2	19547	26.647950839471	63450
2	19577	26.675630839471	63591
2	19615	26.703310839471	63732
2	19626	26.717150839471	63873
2	19636	26.730990839471	64014
2	19643	26.744830839471	64155
2	19666	26.758670839471	64296
2	19673	26.772510839471	64437
2	20462	28.342590839471	64578
2	20496	28.370270839471	64719
2	20507	28.397950839471	64860
2	20542	28.411790839471	65001
2	21296	29.856430839471	65142
2	21314	29.870270839471	65283
2	21324	29.884110839471	65424
2	21334	29.897950839471	65565
2	21381	29.911790839471	65706
2	21396	29.925630839471	65847
2	21406	29.939470839471	65988
2	21434	29.953310839471	66129
2	21748	30.478750839471	66270
2	21758	30.492590839471	66411
2	21798	30.506430839471	66552
2	21817	30.520270839471	66693
2	22515	31.978750839471	66834
2	22525	31.992590839471	66975
2	22789	32.388430839471	67116
2	22824	32.402270839471	67257
2	23110	32.928750839471	67398
2	23120	32.942590839471	67539
2	23146	32.956430839471	67680
2	24305	35.078750839471	67821
2	24714	35.778750839471	67962
2	24721	35.792590839471	68103
2	24760	35.820270839471	68244
2	29941	46.078750839471	68385
2	29951	46.092590839471	68526
2	30240	46.628750839471	68667
2	30641	47.342590839471	68808
2	30941	47.878750839471	68949
2	33077	52.028750839471	69090
2	33084	52.042590839471	69231
2	33379	52.578750839471	69372
2	34560	54.878750839471	69513
2	35557	56.888430839471	69654
3	1442	1.692590839471	141
3	1480	1.706430839471	282
3	1487	1.720270839471	423
3	1495	1.747950839471	564
3	1521	1.761790839471	705
3	1531	1.775630839471	846
3	1541	1.789470839471	987
3	1585	1.803310839471	1128
3	1610	1.817150839471	1269
3	1620	1.830990839471	1410
3	1627	1.844830839471	1551
3	1653	1.858670839471	1692
3	1664	1.886350839471	1833
3	1699	1.900190839471	1974
3	1706	1.914030839471	2115
3	1716	1.927870839471	2256
3	1723	1.941710839471	2397
3	1749	1.955550839471	2538
3	1759	1.969390839471	2679
3	1769	1.983230839471	2820
3	1779	1.997070839471	2961
3	1814	2.010910839471	3102
3	1824	2.024750839471	3243
3	1851	2.052430839471	3384
3	1862	2.080110839471	3525
3	1872	2.093950839471	3666
3	1909	2.135470839471	3807
3	1933	2.163150839471	3948
3	1943	2.176990839471	4089
3	1950	2.190830839471	4230
3	1992	2.204670839471	4371
3	2011	2.218510839471	4512
3	2022	2.246190839471	4653
3	2045	2.260030839471	4794
3	2055	2.273870839471	4935
3	2094	2.301550839471	5076
3	2104	2.315390839471	5217
3	2114	2.329230839471	5358
3	2124	2.343070839471	5499
3	2161	2.370750839471	5640
3	2198	2.412270839471	5781
3	2209	2.439950839471	5922
3	2232	2.453790839471	6063
3	2242	2.467630839471	6204
3	2279	2.509150839471	6345
3	2290	2.536830839471	6486
3	2317	2.564510839471	6627
3	2327	2.578350839471	6768
3	2366	2.647550839471	6909
3	2392	2.661390839471	7050
3	2402	2.675230839471	7191
3	2456	2.716750839471	7332
3	2466	2.730590839471	7473
3	2476	2.744430839471	7614
3	2501	2.758270839471	7755
3	2512	2.772110839471	7896
3	2519	2.785950839471	8037
3	2558	2.813630839471	8178
3	2568	2.827470839471	8319
3	2578	2.841310839471	8460
3	2606	2.855150839471	8601
3	2617	2.868990839471	8742
3	2628	2.896670839471	8883
3	2666	2.910510839471	9024
3	2676	2.924350839471	9165
3	2703	2.952030839471	9306
3	2710	2.965870839471	9447
3	2718	2.993550839471	9588
3	2756	3.007390839471	9729
3	2766	3.021230839471	9870
3	2773	3.035070839471	10011
3	3159	3.578750839471	10152
3	3195	3.606430839471	10293
3	3202	3.620270839471	10434
3	3209	3.634110839471	10575
3	3216	3.647950839471	10716
3	3239	3.661790839471	10857
3	3249	3.675630839471	10998
3	3259	3.689470839471	11139
3	3294	3.703310839471	11280
3	3304	3.717150839471	11421
3	3314	3.730990839471	11562
3	3324	3.744830839471	11703
3	3350	3.758670839471	11844
3	3361	3.786350839471	11985
3	3403	3.814030839471	12126
3	3414	3.841710839471	12267
3	3440	3.855550839471	12408
3	3450	3.869390839471	12549
3	3460	3.883230839471	12690
3	3467	3.897070839471	12831
3	3506	3.924750839471	12972
3	3534	3.952430839471	13113
3	3556	3.966270839471	13254
3	3593	4.007790839471	13395
3	3603	4.021630839471	13536
3	3611	4.049310839471	13677
3	3638	4.076990839471	13818
3	3681	4.104670839471	13959
3	3689	4.118510839471	14100
3	3700	4.146190839471	14241
3	3727	4.173870839471	14382
3	3734	4.187710839471	14523
3	3773	4.215390839471	14664
3	3784	4.243070839471	14805
3	3810	4.256910839471	14946
3	3820	4.270750839471	15087
3	3932	4.30385129477	15228
3	3955	4.33153129477	15369
3	3962	4.34537129477	15510
3	3988	4.35921129477	15651
3	3999	4.38689129477	15792
3	4035	4.41457129477	15933
3	4042	4.42841129477	16074
3	4052	4.44225129477	16215
3	4097	4.46993129477	16356
3	4105	4.48377129477	16497
3	4112	4.49761129477	16638
3	4151	4.52529129477	16779
3	4178	4.55297129477	16920
3	4188	4.56681129477	17061
3	4199	4.59449129477	17202
3	4238	4.62217129477	17343
3	4248	4.63601129477	17484
3	4258	4.64985129477	17625
3	4283	4.66369129477	17766
3	4293	4.67753129477	17907
3	4749	5.128750839471	18048
3	4777	5.170270839471	18189
3	4787	5.184110839471	18330
3	4797	5.197950839471	18471
3	4836	5.225630839471	18612
3	4846	5.239470839471	18753
3	4872	5.253310839471	18894
3	4884	5.294830839471	19035
3	4920	5.322510839471	19176
3	4927	5.336350839471	19317
3	4953	5.350190839471	19458
3	4963	5.364030839471	19599
3	4974	5.391710839471	19740
3	5013	5.419390839471	19881
3	5021	5.447070839471	20022
3	5048	5.474750839471	20163
3	5058	5.488590839471	20304
3	5100	5.502430839471	20445
3	5115	5.516270839471	20586
3	5125	5.530110839471	20727
3	5135	5.543950839471	20868
3	5158	5.557790839471	21009
3	5169	5.585470839471	21150
3	5176	5.599310839471	21291
3	5235	5.654670839471	21432
3	5246	5.682350839471	21573
3	5253	5.696190839471	21714
3	5293	5.710030839471	21855
3	5304	5.737710839471	21996
3	5332	5.779230839471	22137
3	5369	5.820750839471	22278
3	5379	5.834590839471	22419
3	5386	5.848430839471	22560
3	5414	5.889950839471	22701
3	5452	5.903790839471	22842
3	5459	5.917630839471	22983
3	5470	5.945310839471	23124
3	5493	5.959150839471	23265
3	5533	6.000670839471	23406
3	5540	6.014510839471	23547
3	5547	6.028350839471	23688
3	5575	6.056030839471	23829
3	5590	6.069870839471	23970
3	5602	6.083710839471	24111
3	5612	6.097550839471	24252
3	5652	6.139070839471	24393
3	5678	6.152910839471	24534
3	5688	6.166750839471	24675
3	5699	6.194430839471	24816
3	5739	6.208270839471	24957
3	5761	6.222110839471	25098
3	5771	6.235950839471	25239
3	5781	6.249790839471	25380
3	5811	6.277470839471	25521
3	5821	6.291310839471	25662
3	5856	6.305150839471	25803
3	5867	6.332830839471	25944
3	5891	6.360510839471	26085
3	5898	6.374350839471	26226
3	5908	6.388190839471	26367
3	5947	6.415870839471	26508
3	5954	6.429710839471	26649
3	5978	6.457390839471	26790
3	5988	6.471230839471	26931
3	5998	6.485070839471	27072
3	7598	9.392590839471	27213
3	7635	9.406430839471	27354
3	7646	9.420270839471	27495
3	7657	9.447950839471	27636
3	7680	9.461790839471	27777
3	7721	9.517150839471	27918
3	7731	9.530990839471	28059
3	7741	9.544830839471	28200
3	7769	9.558670839471	28341
3	7791	9.572510839471	28482
3	7801	9.586350839471	28623
3	7836	9.600190839471	28764
3	7846	9.614030839471	28905
3	7853	9.627870839471	29046
3	7863	9.641710839471	29187
3	7886	9.655550839471	29328
3	7896	9.669390839471	29469
3	7906	9.683230839471	29610
3	7916	9.697070839471	29751
3	7969	9.724750839471	29892
3	7979	9.738590839471	30033
3	8007	9.752430839471	30174
3	8019	9.780110839471	30315
3	8029	9.793950839471	30456
3	8064	9.807790839471	30597
3	8074	9.821630839471	30738
3	8084	9.835470839471	30879
3	8109	9.876990839471	31020
3	8119	9.890830839471	31161
3	8154	9.904670839471	31302
3	8164	9.918510839471	31443
3	8174	9.932350839471	31584
3	8184	9.946190839471	31725
3	8210	9.960030839471	31866
3	8251	10.001550839471	32007
3	8261	10.015390839471	32148
3	8291	10.084590839471	32289
3	8301	10.098430839471	32430
3	8348	10.112270839471	32571
3	8381	10.153790839471	32712
3	8388	10.167630839471	32853
3	8398	10.181470839471	32994
3	8437	10.209150839471	33135
3	8444	10.222990839471	33276
3	8475	10.250670839471	33417
3	8492	10.264510839471	33558
3	8508	10.292190839471	33699
3	8546	10.306030839471	33840
3	8553	10.319870839471	33981
3	8561	10.347550839471	34122
3	8587	10.361390839471	34263
3	8598	10.389070839471	34404
3	8635	10.402910839471	34545
3	8652	10.416750839471	34686
3	8659	10.430590839471	34827
3	8683	10.458270839471	34968
3	8693	10.472110839471	35109
3	8856	10.500473940539	35250
3	8867	10.528153940539	35391
3	8874	10.541993940539	35532
3	8898	10.569673940539	35673
3	8905	10.583513940539	35814
3	8953	10.611193940539	35955
3	8961	10.638873940539	36096
3	8986	10.652713940539	36237
3	9004	10.666553940539	36378
3	9011	10.680393940539	36519
3	9021	10.694233940539	36660
3	9059	10.708073940539	36801
3	9066	10.721913940539	36942
3	9076	10.735753940539	37083
3	9086	10.749593940539	37224
3	9114	10.763433940539	37365
3	9121	10.777273940539	37506
3	9164	10.804953940539	37647
3	9190	10.832633940539	37788
3	9200	10.846473940539	37929
3	9227	10.874153940539	38070
3	9267	10.915673940539	38211
3	9274	10.929513940539	38352
3	9302	10.957193940539	38493
3	9324	10.971033940539	38634
3	9364	11.012553940539	38775
3	9374	11.026393940539	38916
3	9400	11.081753940539	39057
3	9438	11.109433940539	39198
3	9456	11.123273940539	39339
3	9466	11.137113940539	39480
3	9489	11.150953940539	39621
3	9496	11.164793940539	39762
3	9506	11.178633940539	39903
3	9544	11.206313940539	40044
3	9566	11.220153940539	40185
3	9576	11.233993940539	40326
3	9603	11.261673940539	40467
3	10347	12.592590839471	40608
3	10385	12.606430839471	40749
3	10392	12.620270839471	40890
3	10399	12.634110839471	41031
3	10426	12.661790839471	41172
3	10437	12.689470839471	41313
3	10477	12.703310839471	41454
3	10488	12.717150839471	41595
3	10498	12.730990839471	41736
3	10508	12.744830839471	41877
3	10533	12.758670839471	42018
3	10545	12.786350839471	42159
3	10586	12.841710839471	42300
3	10615	12.897070839471	42441
3	10653	12.910910839471	42582
3	10660	12.924750839471	42723
3	10667	12.938590839471	42864
3	10692	12.952430839471	43005
3	10703	12.966270839471	43146
3	10713	12.980110839471	43287
3	10720	12.993950839471	43428
3	10755	13.007790839471	43569
3	10765	13.021630839471	43710
3	11587	14.528750839471	43851
3	11597	14.542590839471	43992
3	11620	14.556430839471	44133
3	11630	14.570270839471	44274
3	11637	14.584110839471	44415
3	11647	14.597950839471	44556
3	11686	14.625630839471	44697
3	11696	14.639470839471	44838
3	11721	14.653310839471	44979
3	11735	14.667150839471	45120
3	11745	14.680990839471	45261
3	11786	14.708670839471	45402
3	11796	14.722510839471	45543
3	11806	14.736350839471	45684
3	11832	14.750190839471	45825
3	11842	14.764030839471	45966
3	12596	16.242590839471	46107
3	12625	16.270270839471	46248
3	12636	16.297950839471	46389
3	12674	16.311790839471	46530
3	12684	16.325630839471	46671
3	12694	16.339470839471	46812
3	12721	16.367150839471	46953
3	12731	16.380990839471	47094
3	12741	16.394830839471	47235
3	12776	16.408670839471	47376
3	12787	16.436350839471	47517
3	13080	16.642590839471	47658
3	13122	16.670270839471	47799
3	13134	16.684110839471	47940
3	13141	16.697950839471	48081
3	13177	16.725630839471	48222
3	13204	16.753310839471	48363
3	13214	16.767150839471	48504
3	13224	16.780990839471	48645
3	13278	16.822510839471	48786
3	13302	16.850190839471	48927
3	13312	16.864030839471	49068
3	13322	16.877870839471	49209
3	13332	16.891710839471	49350
3	13370	16.905550839471	49491
3	13380	16.919390839471	49632
3	13391	16.947070839471	49773
3	13417	16.960910839471	49914
3	13427	16.974750839471	50055
3	13468	17.002430839471	50196
3	13485	17.016270839471	50337
3	13495	17.030110839471	50478
3	13522	17.071630839471	50619
3	13532	17.085470839471	50760
3	13571	17.113150839471	50901
3	13582	17.140830839471	51042
3	13607	17.154670839471	51183
3	13619	17.196190839471	51324
3	13666	17.210030839471	51465
3	13695	17.251550839471	51606
3	13705	17.265390839471	51747
3	13745	17.306910839471	51888
3	13755	17.320750839471	52029
3	13765	17.334590839471	52170
3	13775	17.348430839471	52311
3	13816	17.376110839471	52452
3	13826	17.389950839471	52593
3	13861	17.403790839471	52734
3	13869	17.431470839471	52875
3	13879	17.445310839471	53016
3	13905	17.459150839471	53157
3	13915	17.472990839471	53298
3	13951	17.500670839471	53439
3	13961	17.514510839471	53580
3	13971	17.528350839471	53721
3	13981	17.542190839471	53862
3	14007	17.556030839471	54003
3	14019	17.597550839471	54144
3	14054	17.611390839471	54285
3	14065	17.639070839471	54426
3	14089	17.666750839471	54567
3	14495	18.378750839471	54708
3	14534	18.406430839471	54849
3	14544	18.420270839471	54990
3	14551	18.434110839471	55131
3	14853	18.928750839471	55272
3	14863	18.942590839471	55413
3	14889	18.956430839471	55554
3	15046	19.228750839471	55695
3	15073	19.256430839471	55836
3	15083	19.270270839471	55977
3	15094	19.297950839471	56118
3	15132	19.311790839471	56259
3	15699	20.342590839471	56400
3	16103	20.942590839471	56541
3	16161	21.011790839471	56682
3	16168	21.025630839471	56823
3	16216	21.080990839471	56964
3	16226	21.094830839471	57105
3	16265	21.122510839471	57246
3	16275	21.136350839471	57387
3	16298	21.150190839471	57528
3	16308	21.164030839471	57669
3	16318	21.177870839471	57810
3	16328	21.191710839471	57951
3	16367	21.219390839471	58092
3	16378	21.247070839471	58233
3	16401	21.260910839471	58374
3	16411	21.274750839471	58515
3	16421	21.288590839471	58656
3	16462	21.343950839471	58797
3	16488	21.357790839471	58938
3	16597	21.478750839471	59079
3	16607	21.492590839471	59220
3	16645	21.506430839471	59361
3	16655	21.520270839471	59502
3	16666	21.547950839471	59643
3	16689	21.561790839471	59784
3	16736	21.617150839471	59925
3	16743	21.630990839471	60066
3	16750	21.644830839471	60207
3	16776	21.658670839471	60348
3	16783	21.672510839471	60489
3	16793	21.686350839471	60630
3	16831	21.700190839471	60771
3	16841	21.714030839471	60912
3	17050	22.092590839471	61053
3	17088	22.106430839471	61194
3	17098	22.120270839471	61335
3	17108	22.134110839471	61476
3	17118	22.147950839471	61617
3	17144	22.161790839471	61758
3	18963	25.828750839471	61899
3	19145	26.128750839471	62040
3	19155	26.142590839471	62181
3	19181	26.156430839471	62322
3	19188	26.170270839471	62463
3	19195	26.184110839471	62604
3	19202	26.197950839471	62745
3	19484	26.578750839471	62886
3	19494	26.592590839471	63027
3	19532	26.606430839471	63168
3	19540	26.634110839471	63309
3	19547	26.647950839471	63450
3	19577	26.675630839471	63591
3	19615	26.703310839471	63732
3	19626	26.717150839471	63873
3	19636	26.730990839471	64014
3	19643	26.744830839471	64155
3	19666	26.758670839471	64296
3	19673	26.772510839471	64437
3	20462	28.342590839471	64578
3	20496	28.370270839471	64719
3	20507	28.397950839471	64860
3	20542	28.411790839471	65001
3	21296	29.856430839471	65142
3	21314	29.870270839471	65283
3	21324	29.884110839471	65424
3	21334	29.897950839471	65565
3	21381	29.911790839471	65706
3	21396	29.925630839471	65847
3	21406	29.939470839471	65988
3	21434	29.953310839471	66129
3	21748	30.478750839471	66270
3	21758	30.492590839471	66411
3	21798	30.506430839471	66552
3	21817	30.520270839471	66693
3	22515	31.978750839471	66834
3	22525	31.992590839471	66975
3	22789	32.388430839471	67116
3	22824	32.402270839471	67257
3	23110	32.928750839471	67398
3	23120	32.942590839471	67539
3	23146	32.956430839471	67680
3	24305	35.078750839471	67821
3	24714	35.778750839471	67962
3	24721	35.792590839471	68103
3	24760	35.820270839471	68244
3	29941	46.078750839471	68385
3	29951	46.092590839471	68526
3	30240	46.628750839471	68667
3	30641	47.342590839471	68808
3	30941	47.878750839471	68949
3	33077	52.028750839471	69090
3	33084	52.042590839471	69231
3	33379	52.578750839471	69372
3	34560	54.878750839471	69513
3	35557	56.888430839471	69654

