version 2
run B-0-20190910-23:34:23-7919
attr configname B
attr datetime 20190910-23:34:23
attr experiment B
attr inifile SimV2.ini
attr iterationvars ""
attr iterationvarsf ""
attr measurement ""
attr network NetworkTormV2
attr processid 7919
attr repetition 0
attr replication #0
attr resultdir results
attr runnumber 0
attr seedset 0
param **.mobility.traceFile "\"paths/B.movements\""
param **.numNodes 4
param **.wirelessIfc.wirelessRange 35m
param **.bluetoothIfc.wirelessRange 35m
param **.numNodes 2
param **.application.usedRNG 1
param **.application.dataGenerationInterval 1ms
param **.application.dataSizeInBytes 10
param **.application.ttl 999999s
param **application.destinationAddr "\"Wf:00:00:00:00:02\""
param **application.destinationBTAddr "\"Bt:00:00:00:00:02\""
param **application.nodesThatGen true
param **application.nodesGenMsg "\"0\""
param **application.startMultipleMsg true
param **application.numMultipleMsg 100
param **application.hopsListSize 50
param **.routingLayer "\"RoutingLayer\""
param **.routing.maximumCacheSize 5000byte
param **.routing.maximumHopCount 25
param **.routing.useTTL false
param **.routing.waitBFsend 0.5
param **.neighboring.antiEntropyInterval 500ms
param **.neighboring.maximumRandomBackoffDuration 1s
param **.neighboring.delayPerDataMsg 0.1
param **neighboring.usedRNG 2
param **.neighboring.GWAddr "\"02:00:00:00:00:09\""
param **.neighboring.sendWifiFirst true
param **.neighboring.maxLengthGraph 20
param **.wirelessIfc.wirelessRange 15m
param **.wirelessIfc.neighbourScanInterval 50ms
param **.wirelessIfc.bandwidthBitRate 100000bps
param **.wirelessIfc.wirelessHeaderSize 32byte
param **.wirelessIfc.minSSI -90
param **.bluetoothIfc.wirelessRange 15m
param **.bluetoothIfc.neighbourScanInterval 100ms
param **.bluetoothIfc.bandwidthBitRate 100000bps
param **.bluetoothIfc.wirelessHeaderSize 16byte
param **.bluetoothIfc.minSSI -90
param **.mobilityType "\"BonnMotionMobility\""
param **.mobility.traceFile "\"paths/Moves2.movements\""
param **.mobility.nodeId -1

vector 0 NetworkTormV2 neighbourhoodSize:vector ETV
attr source neighbourhoodSize
vector 1 NetworkTormV2 deliveryRatio:vector ETV
attr source sum(totalDataBytesReceived)/sum(totalDataBytesReceivableByAllNodes)
vector 2 NetworkTormV2 dataBytesReceivedSum:vector ETV
attr source sum(dataBytesReceived)
vector 3 NetworkTormV2 totalBytesReceivedSum:vector ETV
attr source sum(totalBytesReceived)
0	13	0.05	2
0	14	0.05	2
0	15	0.05	2
0	16	0.05	2
0	26	0.1	2
0	27	0.1	2
0	28	0.1	2
0	29	0.1	2
0	30	0.1	2
0	31	0.1	2
0	32	0.1	2
0	33	0.1	2
0	149	0.15	2
0	150	0.15	2
0	151	0.15	2
0	152	0.15	2
0	261	0.2	2
0	262	0.2	2
0	263	0.2	2
0	264	0.2	2
0	265	0.2	2
0	266	0.2	2
0	267	0.2	2
0	268	0.2	2
0	285	0.25	2
0	286	0.25	2
0	287	0.25	2
0	288	0.25	2
0	297	0.3	2
0	298	0.3	2
0	299	0.3	2
0	300	0.3	2
0	301	0.3	2
0	302	0.3	2
0	303	0.3	2
0	304	0.3	2
0	321	0.35	2
0	322	0.35	2
0	323	0.35	2
0	324	0.35	2
0	333	0.4	2
0	334	0.4	2
0	335	0.4	2
0	336	0.4	2
0	337	0.4	2
0	338	0.4	2
0	339	0.4	2
0	340	0.4	2
0	357	0.45	2
0	358	0.45	2
0	359	0.45	2
0	360	0.45	2
0	369	0.5	2
0	370	0.5	2
0	371	0.5	2
0	372	0.5	2
0	373	0.5	2
0	374	0.5	2
0	375	0.5	2
0	376	0.5	2
0	393	0.55	2
0	394	0.55	2
0	395	0.55	2
0	396	0.55	2
0	405	0.6	2
0	406	0.6	2
0	407	0.6	2
0	408	0.6	2
0	409	0.6	2
0	410	0.6	2
0	411	0.6	2
0	412	0.6	2
0	429	0.65	2
0	430	0.65	2
0	431	0.65	2
0	432	0.65	2
0	441	0.7	2
0	442	0.7	2
0	443	0.7	2
0	444	0.7	2
0	445	0.7	2
0	446	0.7	2
0	447	0.7	2
0	448	0.7	2
0	465	0.75	2
0	466	0.75	2
0	467	0.75	2
0	468	0.75	2
0	477	0.8	2
0	478	0.8	2
0	479	0.8	2
0	480	0.8	2
0	481	0.8	2
0	482	0.8	2
0	483	0.8	2
0	484	0.8	2
0	501	0.85	2
0	502	0.85	2
0	503	0.85	2
0	504	0.85	2
0	513	0.9	2
0	514	0.9	2
0	515	0.9	2
0	516	0.9	2
0	517	0.9	2
0	518	0.9	2
0	519	0.9	2
0	520	0.9	2
0	537	0.95	2
0	538	0.95	2
0	539	0.95	2
0	540	0.95	2
0	549	1	2
0	550	1	2
0	551	1	2
0	552	1	2
0	553	1	2
0	554	1	2
0	555	1	2
0	556	1	2
0	573	1.05	2
0	574	1.05	2
0	575	1.05	2
0	576	1.05	2
0	585	1.1	2
0	586	1.1	2
0	587	1.1	2
0	588	1.1	2
0	589	1.1	2
0	590	1.1	2
0	591	1.1	2
0	592	1.1	2
0	713	1.15	2
0	714	1.15	2
0	715	1.15	2
0	716	1.15	2
0	725	1.2	2
0	726	1.2	2
0	727	1.2	2
0	728	1.2	2
0	729	1.2	2
0	730	1.2	2
0	731	1.2	2
0	732	1.2	2
0	749	1.25	2
0	750	1.25	2
0	751	1.25	2
0	752	1.25	2
0	761	1.3	2
0	762	1.3	2
0	763	1.3	2
0	764	1.3	2
0	765	1.3	2
0	766	1.3	2
0	767	1.3	2
0	768	1.3	2
0	785	1.35	2
0	786	1.35	2
0	787	1.35	2
0	788	1.35	2
0	797	1.4	2
0	798	1.4	2
0	799	1.4	2
0	800	1.4	2
0	801	1.4	2
0	802	1.4	2
0	803	1.4	2
0	804	1.4	2
0	821	1.45	2
0	822	1.45	2
0	823	1.45	2
0	824	1.45	2
0	833	1.5	2
0	834	1.5	2
0	835	1.5	2
0	836	1.5	2
0	837	1.5	2
0	838	1.5	2
0	839	1.5	2
0	840	1.5	2
0	857	1.55	2
0	858	1.55	2
0	859	1.55	2
0	860	1.55	2
0	869	1.6	2
0	870	1.6	2
0	871	1.6	2
0	872	1.6	2
0	873	1.6	2
0	874	1.6	2
0	875	1.6	2
0	876	1.6	2
0	893	1.65	2
0	894	1.65	2
0	895	1.65	2
0	896	1.65	2
0	1219	1.7	2
0	1220	1.7	2
0	1221	1.7	2
0	1222	1.7	2
0	1223	1.7	2
0	1224	1.7	2
0	1225	1.7	2
0	1226	1.7	2
0	1279	1.75	2
0	1280	1.75	2
0	1281	1.75	2
0	1282	1.75	2
0	1325	1.8	2
0	1326	1.8	2
0	1327	1.8	2
0	1328	1.8	2
0	1329	1.8	2
0	1330	1.8	2
0	1331	1.8	2
0	1332	1.8	2
0	1389	1.85	2
0	1390	1.85	2
0	1391	1.85	2
0	1392	1.85	2
0	1431	1.9	2
0	1432	1.9	2
0	1433	1.9	2
0	1434	1.9	2
0	1435	1.9	2
0	1436	1.9	2
0	1437	1.9	2
0	1438	1.9	2
0	1495	1.95	2
0	1496	1.95	2
0	1497	1.95	2
0	1498	1.95	2
0	1547	2	2
0	1548	2	2
0	1549	2	2
0	1550	2	2
0	1551	2	2
0	1552	2	2
0	1553	2	2
0	1554	2	2
0	1601	2.05	2
0	1602	2.05	2
0	1603	2.05	2
0	1604	2.05	2
0	1653	2.1	2
0	1654	2.1	2
0	1655	2.1	2
0	1656	2.1	2
0	1657	2.1	2
0	1658	2.1	2
0	1659	2.1	2
0	1660	2.1	2
0	1713	2.15	2
0	1714	2.15	2
0	1715	2.15	2
0	1716	2.15	2
0	1759	2.2	2
0	1760	2.2	2
0	1761	2.2	2
0	1762	2.2	2
0	1763	2.2	2
0	1764	2.2	2
0	1765	2.2	2
0	1766	2.2	2
0	1897	2.25	2
0	1898	2.25	2
0	1899	2.25	2
0	1900	2.25	2
0	1939	2.3	2
0	1940	2.3	2
0	1941	2.3	2
0	1942	2.3	2
0	1943	2.3	2
0	1944	2.3	2
0	1945	2.3	2
0	1946	2.3	2
0	2003	2.35	2
0	2004	2.35	2
0	2005	2.35	2
0	2006	2.35	2
0	2051	2.4	2
0	2052	2.4	2
0	2053	2.4	2
0	2054	2.4	2
0	2055	2.4	2
0	2056	2.4	2
0	2057	2.4	2
0	2058	2.4	2
0	2109	2.45	2
0	2110	2.45	2
0	2111	2.45	2
0	2112	2.45	2
0	2161	2.5	2
0	2162	2.5	2
0	2163	2.5	2
0	2164	2.5	2
0	2165	2.5	2
0	2166	2.5	2
0	2167	2.5	2
0	2168	2.5	2
0	2215	2.55	2
0	2216	2.55	2
0	2217	2.55	2
0	2218	2.55	2
0	2267	2.6	2
0	2268	2.6	2
0	2269	2.6	2
0	2270	2.6	2
0	2271	2.6	2
0	2272	2.6	2
0	2273	2.6	2
0	2274	2.6	2
0	2327	2.65	2
0	2328	2.65	2
0	2329	2.65	2
0	2330	2.65	2
0	2373	2.7	2
0	2374	2.7	2
0	2375	2.7	2
0	2376	2.7	2
0	2377	2.7	2
0	2378	2.7	2
0	2379	2.7	2
0	2380	2.7	2
0	2437	2.75	2
0	2438	2.75	2
0	2439	2.75	2
0	2440	2.75	2
0	2541	2.8	2
0	2542	2.8	2
0	2543	2.8	2
0	2544	2.8	2
0	2545	2.8	2
0	2546	2.8	2
0	2547	2.8	2
0	2548	2.8	2
0	2599	2.85	2
0	2600	2.85	2
0	2601	2.85	2
0	2602	2.85	2
0	2651	2.9	2
0	2652	2.9	2
0	2653	2.9	2
0	2654	2.9	2
0	2655	2.9	2
0	2656	2.9	2
0	2657	2.9	2
0	2658	2.9	2
0	2705	2.95	2
0	2706	2.95	2
0	2707	2.95	2
0	2708	2.95	2
0	2757	3	2
0	2758	3	2
0	2759	3	2
0	2760	3	2
0	2761	3	2
0	2762	3	2
0	2763	3	2
0	2764	3	2
0	2817	3.05	2
0	2818	3.05	2
0	2819	3.05	2
0	2820	3.05	2
0	2873	3.1	2
0	2874	3.1	2
0	2875	3.1	2
0	2876	3.1	2
0	2877	3.1	2
0	2878	3.1	2
0	2879	3.1	2
0	2880	3.1	2
0	2919	3.15	2
0	2920	3.15	2
0	2921	3.15	2
0	2922	3.15	2
0	2931	3.2	2
0	2932	3.2	2
0	2933	3.2	2
0	2934	3.2	2
0	2935	3.2	2
0	2936	3.2	2
0	2937	3.2	2
0	2938	3.2	2
0	2955	3.25	2
0	2956	3.25	2
0	2957	3.25	2
0	2958	3.25	2
0	2993	3.3	2
0	2994	3.3	2
0	2995	3.3	2
0	2996	3.3	2
0	2997	3.3	2
0	2998	3.3	2
0	2999	3.3	2
0	3000	3.3	2
0	3069	3.35	2
0	3070	3.35	2
0	3071	3.35	2
0	3072	3.35	2
0	3081	3.4	2
0	3082	3.4	2
0	3083	3.4	2
0	3084	3.4	2
0	3085	3.4	2
0	3086	3.4	2
0	3087	3.4	2
0	3088	3.4	2
0	3131	3.45	2
0	3132	3.45	2
0	3133	3.45	2
0	3134	3.45	2
0	3143	3.5	2
0	3144	3.5	2
0	3145	3.5	2
0	3146	3.5	2
0	3147	3.5	2
0	3148	3.5	2
0	3149	3.5	2
0	3150	3.5	2
0	3167	3.55	2
0	3168	3.55	2
0	3169	3.55	2
0	3170	3.55	2
0	3179	3.6	2
0	3180	3.6	2
0	3181	3.6	2
0	3182	3.6	2
0	3183	3.6	2
0	3184	3.6	2
0	3185	3.6	2
0	3186	3.6	2
0	3203	3.65	2
0	3204	3.65	2
0	3205	3.65	2
0	3206	3.65	2
0	3215	3.7	2
0	3216	3.7	2
0	3217	3.7	2
0	3218	3.7	2
0	3219	3.7	2
0	3220	3.7	2
0	3221	3.7	2
0	3222	3.7	2
0	3239	3.75	2
0	3240	3.75	2
0	3241	3.75	2
0	3242	3.75	2
0	3251	3.8	2
0	3252	3.8	2
0	3253	3.8	2
0	3254	3.8	2
0	3255	3.8	2
0	3256	3.8	2
0	3257	3.8	2
0	3258	3.8	2
0	3301	3.85	2
0	3302	3.85	2
0	3303	3.85	2
0	3304	3.85	2
0	3575	3.9	2
0	3576	3.9	2
0	3577	3.9	2
0	3578	3.9	2
0	3579	3.9	2
0	3580	3.9	2
0	3581	3.9	2
0	3582	3.9	2
0	3635	3.95	2
0	3636	3.95	2
0	3637	3.95	2
0	3638	3.95	2
0	3703	4	2
0	3704	4	2
0	3705	4	2
0	3706	4	2
0	3707	4	2
0	3708	4	2
0	3709	4	2
0	3710	4	2
0	3767	4.05	2
0	3768	4.05	2
0	3769	4.05	2
0	3770	4.05	2
0	3809	4.1	2
0	3810	4.1	2
0	3811	4.1	2
0	3812	4.1	2
0	3813	4.1	2
0	3814	4.1	2
0	3815	4.1	2
0	3816	4.1	2
0	3873	4.15	2
0	3874	4.15	2
0	3875	4.15	2
0	3876	4.15	2
0	3925	4.2	2
0	3926	4.2	2
0	3927	4.2	2
0	3928	4.2	2
0	3929	4.2	2
0	3930	4.2	2
0	3931	4.2	2
0	3932	4.2	2
0	3979	4.25	2
0	3980	4.25	2
0	3981	4.25	2
0	3982	4.25	2
0	4031	4.3	2
0	4032	4.3	2
0	4033	4.3	2
0	4034	4.3	2
0	4035	4.3	2
0	4036	4.3	2
0	4037	4.3	2
0	4038	4.3	2
0	4091	4.35	2
0	4092	4.35	2
0	4093	4.35	2
0	4094	4.35	2
0	4152	4.4	2
0	4153	4.4	2
0	4154	4.4	2
0	4155	4.4	2
0	4156	4.4	2
0	4157	4.4	2
0	4158	4.4	2
0	4159	4.4	2
0	4253	4.45	2
0	4254	4.45	2
0	4255	4.45	2
0	4256	4.45	2
0	4295	4.5	2
0	4296	4.5	2
0	4297	4.5	2
0	4298	4.5	2
0	4299	4.5	2
0	4300	4.5	2
0	4301	4.5	2
0	4302	4.5	2
0	4372	4.55	2
0	4373	4.55	2
0	4374	4.55	2
0	4375	4.55	2
0	4420	4.6	2
0	4421	4.6	2
0	4422	4.6	2
0	4423	4.6	2
0	4424	4.6	2
0	4425	4.6	2
0	4426	4.6	2
0	4427	4.6	2
0	4478	4.65	2
0	4479	4.65	2
0	4480	4.65	2
0	4481	4.65	2
0	4530	4.7	2
0	4531	4.7	2
0	4532	4.7	2
0	4533	4.7	2
0	4534	4.7	2
0	4535	4.7	2
0	4536	4.7	2
0	4537	4.7	2
0	4584	4.75	2
0	4585	4.75	2
0	4586	4.75	2
0	4587	4.75	2
0	4636	4.8	2
0	4637	4.8	2
0	4638	4.8	2
0	4639	4.8	2
0	4640	4.8	2
0	4641	4.8	2
0	4642	4.8	2
0	4643	4.8	2
0	4696	4.85	2
0	4697	4.85	2
0	4698	4.85	2
0	4699	4.85	2
0	4742	4.9	2
0	4743	4.9	2
0	4744	4.9	2
0	4745	4.9	2
0	4746	4.9	2
0	4747	4.9	2
0	4748	4.9	2
0	4749	4.9	2
0	4819	4.95	2
0	4820	4.95	2
0	4821	4.95	2
0	4822	4.95	2
0	4895	5	2
0	4896	5	2
0	4897	5	2
0	4898	5	2
0	4899	5	2
0	4900	5	2
0	4901	5	2
0	4902	5	2
0	4953	5.05	2
0	4954	5.05	2
0	4955	5.05	2
0	4956	5.05	2
0	5018	5.1	2
0	5019	5.1	2
0	5020	5.1	2
0	5021	5.1	2
0	5022	5.1	2
0	5023	5.1	2
0	5024	5.1	2
0	5025	5.1	2
0	5072	5.15	2
0	5073	5.15	2
0	5074	5.15	2
0	5075	5.15	2
0	5124	5.2	2
0	5125	5.2	2
0	5126	5.2	2
0	5127	5.2	2
0	5128	5.2	2
0	5129	5.2	2
0	5130	5.2	2
0	5131	5.2	2
0	5184	5.25	2
0	5185	5.25	2
0	5186	5.25	2
0	5187	5.25	2
0	5240	5.3	2
0	5241	5.3	2
0	5242	5.3	2
0	5243	5.3	2
0	5244	5.3	2
0	5245	5.3	2
0	5246	5.3	2
0	5247	5.3	2
0	5275	5.35	2
0	5276	5.35	2
0	5277	5.35	2
0	5278	5.35	2
0	5287	5.4	2
0	5288	5.4	2
0	5289	5.4	2
0	5290	5.4	2
0	5291	5.4	2
0	5292	5.4	2
0	5293	5.4	2
0	5294	5.4	2
0	5324	5.45	2
0	5325	5.45	2
0	5326	5.45	2
0	5327	5.45	2
0	5362	5.5	2
0	5363	5.5	2
0	5364	5.5	2
0	5365	5.5	2
0	5366	5.5	2
0	5367	5.5	2
0	5368	5.5	2
0	5369	5.5	2
0	5412	5.55	2
0	5413	5.55	2
0	5414	5.55	2
0	5415	5.55	2
0	5437	5.6	2
0	5438	5.6	2
0	5439	5.6	2
0	5440	5.6	2
0	5441	5.6	2
0	5442	5.6	2
0	5443	5.6	2
0	5444	5.6	2
0	5487	5.65	2
0	5488	5.65	2
0	5489	5.65	2
0	5490	5.65	2
0	5499	5.7	2
0	5500	5.7	2
0	5501	5.7	2
0	5502	5.7	2
0	5503	5.7	2
0	5504	5.7	2
0	5505	5.7	2
0	5506	5.7	2
0	5523	5.75	2
0	5524	5.75	2
0	5525	5.75	2
0	5526	5.75	2
0	5535	5.8	2
0	5536	5.8	2
0	5537	5.8	2
0	5538	5.8	2
0	5539	5.8	2
0	5540	5.8	2
0	5541	5.8	2
0	5542	5.8	2
0	5559	5.85	2
0	5560	5.85	2
0	5561	5.85	2
0	5562	5.85	2
0	5571	5.9	2
0	5572	5.9	2
0	5573	5.9	2
0	5574	5.9	2
0	5575	5.9	2
0	5576	5.9	2
0	5577	5.9	2
0	5578	5.9	2
0	5595	5.95	2
0	5596	5.95	2
0	5597	5.95	2
0	5598	5.95	2
0	5620	6	2
0	5621	6	2
0	5622	6	2
0	5623	6	2
0	5624	6	2
0	5625	6	2
0	5626	6	2
0	5627	6	2
0	5670	6.05	2
0	5671	6.05	2
0	5672	6.05	2
0	5673	6.05	2
0	5708	6.1	2
0	5709	6.1	2
0	5710	6.1	2
0	5711	6.1	2
0	5712	6.1	2
0	5713	6.1	2
0	5714	6.1	2
0	5715	6.1	2
0	5745	6.15	2
0	5746	6.15	2
0	5747	6.15	2
0	5748	6.15	2
0	5783	6.2	2
0	5784	6.2	2
0	5785	6.2	2
0	5786	6.2	2
0	5787	6.2	2
0	5788	6.2	2
0	5789	6.2	2
0	5790	6.2	2
0	5807	6.25	2
0	5808	6.25	2
0	5809	6.25	2
0	5810	6.25	2
0	5819	6.3	2
0	5820	6.3	2
0	5821	6.3	2
0	5822	6.3	2
0	5823	6.3	2
0	5824	6.3	2
0	5825	6.3	2
0	5826	6.3	2
0	5843	6.35	2
0	5844	6.35	2
0	5845	6.35	2
0	5846	6.35	2
0	5855	6.4	2
0	5856	6.4	2
0	5857	6.4	2
0	5858	6.4	2
0	5859	6.4	2
0	5860	6.4	2
0	5861	6.4	2
0	5862	6.4	2
0	5879	6.45	2
0	5880	6.45	2
0	5881	6.45	2
0	5882	6.45	2
0	5891	6.5	2
0	5892	6.5	2
0	5893	6.5	2
0	5894	6.5	2
0	5895	6.5	2
0	5896	6.5	2
0	5897	6.5	2
0	5898	6.5	2
0	5928	6.55	2
0	5929	6.55	2
0	5930	6.55	2
0	5931	6.55	2
0	5966	6.6	2
0	5967	6.6	2
0	5968	6.6	2
0	5969	6.6	2
0	5970	6.6	2
0	5971	6.6	2
0	5972	6.6	2
0	5973	6.6	2
0	6016	6.65	2
0	6017	6.65	2
0	6018	6.65	2
0	6019	6.65	2
0	6041	6.7	2
0	6042	6.7	2
0	6043	6.7	2
0	6044	6.7	2
0	6045	6.7	2
0	6046	6.7	2
0	6047	6.7	2
0	6048	6.7	2
0	6091	6.75	2
0	6092	6.75	2
0	6093	6.75	2
0	6094	6.75	2
0	6103	6.8	2
0	6104	6.8	2
0	6105	6.8	2
0	6106	6.8	2
0	6107	6.8	2
0	6108	6.8	2
0	6109	6.8	2
0	6110	6.8	2
0	6127	6.85	2
0	6128	6.85	2
0	6129	6.85	2
0	6130	6.85	2
0	6139	6.9	2
0	6140	6.9	2
0	6141	6.9	2
0	6142	6.9	2
0	6143	6.9	2
0	6144	6.9	2
0	6145	6.9	2
0	6146	6.9	2
0	6163	6.95	2
0	6164	6.95	2
0	6165	6.95	2
0	6166	6.95	2
0	6175	7	2
0	6176	7	2
0	6177	7	2
0	6178	7	2
0	6179	7	2
0	6180	7	2
0	6181	7	2
0	6182	7	2
0	6199	7.05	2
0	6200	7.05	2
0	6201	7.05	2
0	6202	7.05	2
0	6224	7.1	2
0	6225	7.1	2
0	6226	7.1	2
0	6227	7.1	2
0	6228	7.1	2
0	6229	7.1	2
0	6230	7.1	2
0	6231	7.1	2
0	6274	7.15	2
0	6275	7.15	2
0	6276	7.15	2
0	6277	7.15	2
0	6312	7.2	2
0	6313	7.2	2
0	6314	7.2	2
0	6315	7.2	2
0	6316	7.2	2
0	6317	7.2	2
0	6318	7.2	2
0	6319	7.2	2
0	6349	7.25	2
0	6350	7.25	2
0	6351	7.25	2
0	6352	7.25	2
0	6387	7.3	2
0	6388	7.3	2
0	6389	7.3	2
0	6390	7.3	2
0	6391	7.3	2
0	6392	7.3	2
0	6393	7.3	2
0	6394	7.3	2
0	6411	7.35	2
0	6412	7.35	2
0	6413	7.35	2
0	6414	7.35	2
0	6423	7.4	2
0	6424	7.4	2
0	6425	7.4	2
0	6426	7.4	2
0	6427	7.4	2
0	6428	7.4	2
0	6429	7.4	2
0	6430	7.4	2
0	6447	7.45	2
0	6448	7.45	2
0	6449	7.45	2
0	6450	7.45	2
0	6459	7.5	2
0	6460	7.5	2
0	6461	7.5	2
0	6462	7.5	2
0	6463	7.5	2
0	6464	7.5	2
0	6465	7.5	2
0	6466	7.5	2
0	6483	7.55	2
0	6484	7.55	2
0	6485	7.55	2
0	6486	7.55	2
0	6495	7.6	2
0	6496	7.6	2
0	6497	7.6	2
0	6498	7.6	2
0	6499	7.6	2
0	6500	7.6	2
0	6501	7.6	2
0	6502	7.6	2
0	6532	7.65	2
0	6533	7.65	2
0	6534	7.65	2
0	6535	7.65	2
0	6570	7.7	2
0	6571	7.7	2
0	6572	7.7	2
0	6573	7.7	2
0	6574	7.7	2
0	6575	7.7	2
0	6576	7.7	2
0	6577	7.7	2
0	6620	7.75	2
0	6621	7.75	2
0	6622	7.75	2
0	6623	7.75	2
0	6645	7.8	2
0	6646	7.8	2
0	6647	7.8	2
0	6648	7.8	2
0	6649	7.8	2
0	6650	7.8	2
0	6651	7.8	2
0	6652	7.8	2
0	6695	7.85	2
0	6696	7.85	2
0	6697	7.85	2
0	6698	7.85	2
0	6707	7.9	2
0	6708	7.9	2
0	6709	7.9	2
0	6710	7.9	2
0	6711	7.9	2
0	6712	7.9	2
0	6713	7.9	2
0	6714	7.9	2
0	6731	7.95	2
0	6732	7.95	2
0	6733	7.95	2
0	6734	7.95	2
0	6743	8	2
0	6744	8	2
0	6745	8	2
0	6746	8	2
0	6747	8	2
0	6748	8	2
0	6749	8	2
0	6750	8	2
0	6767	8.05	2
0	6768	8.05	2
0	6769	8.05	2
0	6770	8.05	2
0	6779	8.1	2
0	6780	8.1	2
0	6781	8.1	2
0	6782	8.1	2
0	6783	8.1	2
0	6784	8.1	2
0	6785	8.1	2
0	6786	8.1	2
0	6803	8.15	2
0	6804	8.15	2
0	6805	8.15	2
0	6806	8.15	2
0	6854	8.2	2
0	6855	8.2	2
0	6856	8.2	2
0	6857	8.2	2
0	6858	8.2	2
0	6859	8.2	2
0	6860	8.2	2
0	6861	8.2	2
0	6878	8.25	2
0	6879	8.25	2
0	6880	8.25	2
0	6881	8.25	2
0	6916	8.3	2
0	6917	8.3	2
0	6918	8.3	2
0	6919	8.3	2
0	6920	8.3	2
0	6921	8.3	2
0	6922	8.3	2
0	6923	8.3	2
0	6953	8.35	2
0	6954	8.35	2
0	6955	8.35	2
0	6956	8.35	2
0	6991	8.4	2
0	6992	8.4	2
0	6993	8.4	2
0	6994	8.4	2
0	6995	8.4	2
0	6996	8.4	2
0	6997	8.4	2
0	6998	8.4	2
0	7015	8.45	2
0	7016	8.45	2
0	7017	8.45	2
0	7018	8.45	2
0	7027	8.5	2
0	7028	8.5	2
0	7029	8.5	2
0	7030	8.5	2
0	7031	8.5	2
0	7032	8.5	2
0	7033	8.5	2
0	7034	8.5	2
0	7051	8.55	2
0	7052	8.55	2
0	7053	8.55	2
0	7054	8.55	2
0	7063	8.6	2
0	7064	8.6	2
0	7065	8.6	2
0	7066	8.6	2
0	7067	8.6	2
0	7068	8.6	2
0	7069	8.6	2
0	7070	8.6	2
0	7087	8.65	2
0	7088	8.65	2
0	7089	8.65	2
0	7090	8.65	2
0	7099	8.7	2
0	7100	8.7	2
0	7101	8.7	2
0	7102	8.7	2
0	7103	8.7	2
0	7104	8.7	2
0	7105	8.7	2
0	7106	8.7	2
0	7162	8.75	2
0	7163	8.75	2
0	7164	8.75	2
0	7165	8.75	2
0	7174	8.8	2
0	7175	8.8	2
0	7176	8.8	2
0	7177	8.8	2
0	7178	8.8	2
0	7179	8.8	2
0	7180	8.8	2
0	7181	8.8	2
0	7224	8.85	2
0	7225	8.85	2
0	7226	8.85	2
0	7227	8.85	2
0	7249	8.9	2
0	7250	8.9	2
0	7251	8.9	2
0	7252	8.9	2
0	7253	8.9	2
0	7254	8.9	2
0	7255	8.9	2
0	7256	8.9	2
0	7299	8.95	2
0	7300	8.95	2
0	7301	8.95	2
0	7302	8.95	2
0	7311	9	2
0	7312	9	2
0	7313	9	2
0	7314	9	2
0	7315	9	2
0	7316	9	2
0	7317	9	2
0	7318	9	2
0	7335	9.05	2
0	7336	9.05	2
0	7337	9.05	2
0	7338	9.05	2
0	7347	9.1	2
0	7348	9.1	2
0	7349	9.1	2
0	7350	9.1	2
0	7351	9.1	2
0	7352	9.1	2
0	7353	9.1	2
0	7354	9.1	2
0	7371	9.15	2
0	7372	9.15	2
0	7373	9.15	2
0	7374	9.15	2
0	7383	9.2	2
0	7384	9.2	2
0	7385	9.2	2
0	7386	9.2	2
0	7387	9.2	2
0	7388	9.2	2
0	7389	9.2	2
0	7390	9.2	2
0	7407	9.25	2
0	7408	9.25	2
0	7409	9.25	2
0	7410	9.25	2
0	7458	9.3	2
0	7459	9.3	2
0	7460	9.3	2
0	7461	9.3	2
0	7462	9.3	2
0	7463	9.3	2
0	7464	9.3	2
0	7465	9.3	2
0	7482	9.35	2
0	7483	9.35	2
0	7484	9.35	2
0	7485	9.35	2
0	7520	9.4	2
0	7521	9.4	2
0	7522	9.4	2
0	7523	9.4	2
0	7524	9.4	2
0	7525	9.4	2
0	7526	9.4	2
0	7527	9.4	2
0	7557	9.45	2
0	7558	9.45	2
0	7559	9.45	2
0	7560	9.45	2
0	7595	9.5	2
0	7596	9.5	2
0	7597	9.5	2
0	7598	9.5	2
0	7599	9.5	2
0	7600	9.5	2
0	7601	9.5	2
0	7602	9.5	2
0	7619	9.55	2
0	7620	9.55	2
0	7621	9.55	2
0	7622	9.55	2
0	7631	9.6	2
0	7632	9.6	2
0	7633	9.6	2
0	7634	9.6	2
0	7635	9.6	2
0	7636	9.6	2
0	7637	9.6	2
0	7638	9.6	2
0	7655	9.65	2
0	7656	9.65	2
0	7657	9.65	2
0	7658	9.65	2
0	7667	9.7	2
0	7668	9.7	2
0	7669	9.7	2
0	7670	9.7	2
0	7671	9.7	2
0	7672	9.7	2
0	7673	9.7	2
0	7674	9.7	2
0	7691	9.75	2
0	7692	9.75	2
0	7693	9.75	2
0	7694	9.75	2
0	7703	9.8	2
0	7704	9.8	2
0	7705	9.8	2
0	7706	9.8	2
0	7707	9.8	2
0	7708	9.8	2
0	7709	9.8	2
0	7710	9.8	2
0	7766	9.85	2
0	7767	9.85	2
0	7768	9.85	2
0	7769	9.85	2
0	7778	9.9	2
0	7779	9.9	2
0	7780	9.9	2
0	7781	9.9	2
0	7782	9.9	2
0	7783	9.9	2
0	7784	9.9	2
0	7785	9.9	2
0	7828	9.95	2
0	7829	9.95	2
0	7830	9.95	2
0	7831	9.95	2
0	7853	10	2
0	7854	10	2
0	7855	10	2
0	7856	10	2
0	7857	10	2
0	7858	10	2
0	7859	10	2
0	7860	10	2
1	25	0.1	-nan
1	51	0.101	-nan
1	53	0.102	-nan
1	55	0.103	-nan
1	57	0.104	-nan
1	59	0.105	-nan
1	61	0.106	-nan
1	63	0.107	-nan
1	65	0.108	-nan
1	67	0.109	-nan
1	69	0.11	-nan
1	71	0.111	-nan
1	73	0.112	-nan
1	75	0.113	-nan
1	77	0.114	-nan
1	79	0.115	-nan
1	81	0.116	-nan
1	83	0.117	-nan
1	85	0.118	-nan
1	87	0.119	-nan
1	89	0.12	-nan
1	91	0.121	-nan
1	93	0.122	-nan
1	95	0.123	-nan
1	97	0.124	-nan
1	99	0.125	-nan
1	101	0.126	-nan
1	103	0.127	-nan
1	105	0.128	-nan
1	107	0.129	-nan
1	109	0.13	-nan
1	111	0.131	-nan
1	113	0.132	-nan
1	115	0.133	-nan
1	117	0.134	-nan
1	119	0.135	-nan
1	121	0.136	-nan
1	123	0.137	-nan
1	125	0.138	-nan
1	127	0.139	-nan
1	129	0.14	-nan
1	131	0.141	-nan
1	133	0.142	-nan
1	135	0.143	-nan
1	137	0.144	-nan
1	139	0.145	-nan
1	141	0.146	-nan
1	143	0.147	-nan
1	145	0.148	-nan
1	147	0.149	-nan
1	153	0.15	-nan
1	163	0.151	-nan
1	165	0.152	-nan
1	167	0.153	-nan
1	169	0.154	-nan
1	171	0.155	-nan
1	173	0.156	-nan
1	175	0.157	-nan
1	177	0.158	-nan
1	179	0.159	-nan
1	181	0.16	-nan
1	183	0.161	-nan
1	185	0.162	-nan
1	187	0.163	-nan
1	189	0.164	-nan
1	191	0.165	-nan
1	193	0.166	-nan
1	195	0.167	-nan
1	197	0.168	-nan
1	199	0.169	-nan
1	201	0.17	-nan
1	203	0.171	-nan
1	205	0.172	-nan
1	207	0.173	-nan
1	209	0.174	-nan
1	211	0.175	-nan
1	213	0.176	-nan
1	215	0.177	-nan
1	217	0.178	-nan
1	219	0.179	-nan
1	221	0.18	-nan
1	223	0.181	-nan
1	225	0.182	-nan
1	227	0.183	-nan
1	229	0.184	-nan
1	231	0.185	-nan
1	233	0.186	-nan
1	235	0.187	-nan
1	237	0.188	-nan
1	239	0.189	-nan
1	241	0.19	-nan
1	243	0.191	-nan
1	245	0.192	-nan
1	247	0.193	-nan
1	249	0.194	-nan
1	251	0.195	-nan
1	253	0.196	-nan
1	255	0.197	-nan
1	257	0.198	-nan
1	259	0.199	-nan
2	1212	1.692484841936	141
2	1246	1.706324841936	282
2	1256	1.720164841936	423
2	1266	1.734004841936	564
2	1276	1.747844841936	705
2	1298	1.761684841936	846
2	1308	1.775524841936	987
2	1318	1.789364841936	1128
2	1352	1.803204841936	1269
2	1362	1.817044841936	1410
2	1372	1.830884841936	1551
2	1382	1.844724841936	1692
2	1404	1.858564841936	1833
2	1414	1.872404841936	1974
2	1424	1.886244841936	2115
2	1458	1.900084841936	2256
2	1468	1.913924841936	2397
2	1478	1.927764841936	2538
2	1488	1.941604841936	2679
2	1510	1.955444841936	2820
2	1520	1.969284841936	2961
2	1530	1.983124841936	3102
2	1540	1.996964841936	3243
2	1574	2.010804841936	3384
2	1584	2.024644841936	3525
2	1594	2.038484841936	3666
2	1616	2.052324841936	3807
2	1626	2.066164841936	3948
2	1636	2.080004841936	4089
2	1646	2.093844841936	4230
2	1680	2.107684841936	4371
2	1690	2.121524841936	4512
2	1700	2.135364841936	4653
2	1710	2.149204841936	4794
2	1732	2.163044841936	4935
2	1742	2.176884841936	5076
2	1752	2.190724841936	5217
2	1802	2.204564841936	5358
2	1829	2.218404841936	5499
2	1880	2.232244841936	5640
2	1890	2.246084841936	5781
2	1912	2.259924841936	5922
2	1922	2.273764841936	6063
2	1932	2.287604841936	6204
2	1966	2.301444841936	6345
2	1976	2.315284841936	6486
2	1986	2.329124841936	6627
2	1996	2.342964841936	6768
2	2018	2.356804841936	6909
2	2028	2.370644841936	7050
2	2038	2.384484841936	7191
2	2048	2.398324841936	7332
2	2082	2.412164841936	7473
2	2092	2.426004841936	7614
2	2102	2.439844841936	7755
2	2124	2.453684841936	7896
2	2134	2.467524841936	8037
2	2144	2.481364841936	8178
2	2154	2.495204841936	8319
2	2188	2.509044841936	8460
2	2198	2.522884841936	8601
2	2208	2.536724841936	8742
2	2230	2.550564841936	8883
2	2240	2.564404841936	9024
2	2250	2.578244841936	9165
2	2260	2.592084841936	9306
2	2294	2.605924841936	9447
2	2304	2.619764841936	9588
2	2314	2.633604841936	9729
2	2324	2.647444841936	9870
2	2346	2.661284841936	10011
2	2356	2.675124841936	10152
2	2366	2.688964841936	10293
2	2400	2.702804841936	10434
2	2410	2.716644841936	10575
2	2420	2.730484841936	10716
2	2430	2.744324841936	10857
2	2464	2.758164841936	10998
2	2506	2.772004841936	11139
2	2528	2.785844841936	11280
2	2538	2.799684841936	11421
2	2572	2.813524841936	11562
2	2582	2.827364841936	11703
2	2592	2.841204841936	11844
2	2614	2.855044841936	11985
2	2624	2.868884841936	12126
2	2634	2.882724841936	12267
2	2644	2.896564841936	12408
2	2678	2.910404841936	12549
2	2688	2.924244841936	12690
2	2698	2.938084841936	12831
2	2720	2.951924841936	12972
2	2730	2.965764841936	13113
2	2740	2.979604841936	13254
2	2750	2.993444841936	13395
2	2784	3.007284841936	13536
2	2794	3.021124841936	13677
2	2804	3.034964841936	13818
2	2814	3.048804841936	13959
2	2836	3.062644841936	14100
2	3568	3.892486465244	14241
2	3602	3.906326465244	14382
2	3612	3.920166465244	14523
2	3622	3.934006465244	14664
2	3632	3.947846465244	14805
2	3665	3.961686465244	14946
2	3686	3.975526465244	15087
2	3696	3.989366465244	15228
2	3730	4.003206465244	15369
2	3740	4.017046465244	15510
2	3750	4.030886465244	15651
2	3760	4.044726465244	15792
2	3782	4.058566465244	15933
2	3792	4.072406465244	16074
2	3802	4.086246465244	16215
2	3836	4.100086465244	16356
2	3846	4.113926465244	16497
2	3856	4.127766465244	16638
2	3866	4.141606465244	16779
2	3888	4.155446465244	16920
2	3898	4.169286465244	17061
2	3908	4.183126465244	17202
2	3918	4.196966465244	17343
2	3952	4.210806465244	17484
2	3962	4.224646465244	17625
2	3972	4.238486465244	17766
2	3994	4.252326465244	17907
2	4004	4.266166465244	18048
2	4014	4.280006465244	18189
2	4024	4.293846465244	18330
2	4058	4.307686465244	18471
2	4068	4.321526465244	18612
2	4078	4.335366465244	18753
2	4088	4.349206465244	18894
2	4121	4.363046465244	19035
2	4135	4.376886465244	19176
2	4145	4.390726465244	19317
2	4187	4.404566465244	19458
2	4211	4.418406465244	19599
2	4236	4.432246465244	19740
2	4246	4.446086465244	19881
2	4268	4.459926465244	20022
2	4278	4.473766465244	20163
2	4288	4.487606465244	20304
2	4324	4.501446465244	20445
2	4345	4.515286465244	20586
2	4355	4.529126465244	20727
2	4365	4.542966465244	20868
2	4387	4.556806465244	21009
2	4397	4.570646465244	21150
2	4407	4.584486465244	21291
2	4417	4.598326465244	21432
2	4451	4.612166465244	21573
2	4461	4.626006465244	21714
2	4471	4.639846465244	21855
2	4493	4.653686465244	21996
2	4503	4.667526465244	22137
2	4513	4.681366465244	22278
2	4523	4.695206465244	22419
2	4557	4.709046465244	22560
2	4567	4.722886465244	22701
2	4577	4.736726465244	22842
2	4599	4.750566465244	22983
2	4609	4.764406465244	23124
2	4619	4.778246465244	23265
2	4629	4.792086465244	23406
2	4663	4.805926465244	23547
2	4673	4.819766465244	23688
2	4683	4.833606465244	23829
2	4693	4.847446465244	23970
2	4715	4.861286465244	24111
2	4725	4.875126465244	24252
2	4735	4.888966465244	24393
2	4771	4.902806465244	24534
2	4792	4.916646465244	24675
2	4802	4.930486465244	24816
2	4812	4.944326465244	24957
2	4840	4.958166465244	25098
2	4872	4.972006465244	25239
2	4882	4.985846465244	25380
2	4892	4.999686465244	25521
2	4926	5.013526465244	25662
2	4936	5.027366465244	25803
2	4946	5.041206465244	25944
2	4970	5.055046465244	26085
2	4991	5.068886465244	26226
2	5001	5.082726465244	26367
2	5011	5.096566465244	26508
2	5045	5.110406465244	26649
2	5055	5.124246465244	26790
2	5065	5.138086465244	26931
2	5087	5.151926465244	27072
2	5097	5.165766465244	27213
2	5107	5.179606465244	27354
2	5117	5.193446465244	27495
2	5151	5.207286465244	27636
2	5161	5.221126465244	27777
2	5171	5.234966465244	27918
2	5181	5.248806465244	28059
2	5203	5.262646465244	28200
3	1212	1.692484841936	141
3	1246	1.706324841936	282
3	1256	1.720164841936	423
3	1266	1.734004841936	564
3	1276	1.747844841936	705
3	1298	1.761684841936	846
3	1308	1.775524841936	987
3	1318	1.789364841936	1128
3	1352	1.803204841936	1269
3	1362	1.817044841936	1410
3	1372	1.830884841936	1551
3	1382	1.844724841936	1692
3	1404	1.858564841936	1833
3	1414	1.872404841936	1974
3	1424	1.886244841936	2115
3	1458	1.900084841936	2256
3	1468	1.913924841936	2397
3	1478	1.927764841936	2538
3	1488	1.941604841936	2679
3	1510	1.955444841936	2820
3	1520	1.969284841936	2961
3	1530	1.983124841936	3102
3	1540	1.996964841936	3243
3	1574	2.010804841936	3384
3	1584	2.024644841936	3525
3	1594	2.038484841936	3666
3	1616	2.052324841936	3807
3	1626	2.066164841936	3948
3	1636	2.080004841936	4089
3	1646	2.093844841936	4230
3	1680	2.107684841936	4371
3	1690	2.121524841936	4512
3	1700	2.135364841936	4653
3	1710	2.149204841936	4794
3	1732	2.163044841936	4935
3	1742	2.176884841936	5076
3	1752	2.190724841936	5217
3	1802	2.204564841936	5358
3	1829	2.218404841936	5499
3	1880	2.232244841936	5640
3	1890	2.246084841936	5781
3	1912	2.259924841936	5922
3	1922	2.273764841936	6063
3	1932	2.287604841936	6204
3	1966	2.301444841936	6345
3	1976	2.315284841936	6486
3	1986	2.329124841936	6627
3	1996	2.342964841936	6768
3	2018	2.356804841936	6909
3	2028	2.370644841936	7050
3	2038	2.384484841936	7191
3	2048	2.398324841936	7332
3	2082	2.412164841936	7473
3	2092	2.426004841936	7614
3	2102	2.439844841936	7755
3	2124	2.453684841936	7896
3	2134	2.467524841936	8037
3	2144	2.481364841936	8178
3	2154	2.495204841936	8319
3	2188	2.509044841936	8460
3	2198	2.522884841936	8601
3	2208	2.536724841936	8742
3	2230	2.550564841936	8883
3	2240	2.564404841936	9024
3	2250	2.578244841936	9165
3	2260	2.592084841936	9306
3	2294	2.605924841936	9447
3	2304	2.619764841936	9588
3	2314	2.633604841936	9729
3	2324	2.647444841936	9870
3	2346	2.661284841936	10011
3	2356	2.675124841936	10152
3	2366	2.688964841936	10293
3	2400	2.702804841936	10434
3	2410	2.716644841936	10575
3	2420	2.730484841936	10716
3	2430	2.744324841936	10857
3	2464	2.758164841936	10998
3	2506	2.772004841936	11139
3	2528	2.785844841936	11280
3	2538	2.799684841936	11421
3	2572	2.813524841936	11562
3	2582	2.827364841936	11703
3	2592	2.841204841936	11844
3	2614	2.855044841936	11985
3	2624	2.868884841936	12126
3	2634	2.882724841936	12267
3	2644	2.896564841936	12408
3	2678	2.910404841936	12549
3	2688	2.924244841936	12690
3	2698	2.938084841936	12831
3	2720	2.951924841936	12972
3	2730	2.965764841936	13113
3	2740	2.979604841936	13254
3	2750	2.993444841936	13395
3	2784	3.007284841936	13536
3	2794	3.021124841936	13677
3	2804	3.034964841936	13818
3	2814	3.048804841936	13959
3	2836	3.062644841936	14100
3	3568	3.892486465244	14241
3	3602	3.906326465244	14382
3	3612	3.920166465244	14523
3	3622	3.934006465244	14664
3	3632	3.947846465244	14805
3	3665	3.961686465244	14946
3	3686	3.975526465244	15087
3	3696	3.989366465244	15228
3	3730	4.003206465244	15369
3	3740	4.017046465244	15510
3	3750	4.030886465244	15651
3	3760	4.044726465244	15792
3	3782	4.058566465244	15933
3	3792	4.072406465244	16074
3	3802	4.086246465244	16215
3	3836	4.100086465244	16356
3	3846	4.113926465244	16497
3	3856	4.127766465244	16638
3	3866	4.141606465244	16779
3	3888	4.155446465244	16920
3	3898	4.169286465244	17061
3	3908	4.183126465244	17202
3	3918	4.196966465244	17343
3	3952	4.210806465244	17484
3	3962	4.224646465244	17625
3	3972	4.238486465244	17766
3	3994	4.252326465244	17907
3	4004	4.266166465244	18048
3	4014	4.280006465244	18189
3	4024	4.293846465244	18330
3	4058	4.307686465244	18471
3	4068	4.321526465244	18612
3	4078	4.335366465244	18753
3	4088	4.349206465244	18894
3	4121	4.363046465244	19035
3	4135	4.376886465244	19176
3	4145	4.390726465244	19317
3	4187	4.404566465244	19458
3	4211	4.418406465244	19599
3	4236	4.432246465244	19740
3	4246	4.446086465244	19881
3	4268	4.459926465244	20022
3	4278	4.473766465244	20163
3	4288	4.487606465244	20304
3	4324	4.501446465244	20445
3	4345	4.515286465244	20586
3	4355	4.529126465244	20727
3	4365	4.542966465244	20868
3	4387	4.556806465244	21009
3	4397	4.570646465244	21150
3	4407	4.584486465244	21291
3	4417	4.598326465244	21432
3	4451	4.612166465244	21573
3	4461	4.626006465244	21714
3	4471	4.639846465244	21855
3	4493	4.653686465244	21996
3	4503	4.667526465244	22137
3	4513	4.681366465244	22278
3	4523	4.695206465244	22419
3	4557	4.709046465244	22560
3	4567	4.722886465244	22701
3	4577	4.736726465244	22842
3	4599	4.750566465244	22983
3	4609	4.764406465244	23124
3	4619	4.778246465244	23265
3	4629	4.792086465244	23406
3	4663	4.805926465244	23547
3	4673	4.819766465244	23688
3	4683	4.833606465244	23829
3	4693	4.847446465244	23970
3	4715	4.861286465244	24111
3	4725	4.875126465244	24252
3	4735	4.888966465244	24393
3	4771	4.902806465244	24534
3	4792	4.916646465244	24675
3	4802	4.930486465244	24816
3	4812	4.944326465244	24957
3	4840	4.958166465244	25098
3	4872	4.972006465244	25239
3	4882	4.985846465244	25380
3	4892	4.999686465244	25521
3	4926	5.013526465244	25662
3	4936	5.027366465244	25803
3	4946	5.041206465244	25944
3	4970	5.055046465244	26085
3	4991	5.068886465244	26226
3	5001	5.082726465244	26367
3	5011	5.096566465244	26508
3	5045	5.110406465244	26649
3	5055	5.124246465244	26790
3	5065	5.138086465244	26931
3	5087	5.151926465244	27072
3	5097	5.165766465244	27213
3	5107	5.179606465244	27354
3	5117	5.193446465244	27495
3	5151	5.207286465244	27636
3	5161	5.221126465244	27777
3	5171	5.234966465244	27918
3	5181	5.248806465244	28059
3	5203	5.262646465244	28200

