version 2
run B-0-20190906-01:42:11-31142
attr configname B
attr datetime 20190906-01:42:11
attr experiment B
attr inifile SimV2.ini
attr iterationvars ""
attr iterationvarsf ""
attr measurement ""
attr network NetworkTormV2
attr processid 31142
attr repetition 0
attr replication #0
attr resultdir results
attr runnumber 0
attr seedset 0
param **.mobility.traceFile "\"paths/B.movements\""
param **.numNodes 4
param **.wirelessIfc.wirelessRange 35m
param **.bluetoothIfc.wirelessRange 35m
param **.numNodes 2
param **.application.usedRNG 1
param **.application.dataGenerationInterval 1ms
param **.application.dataSizeInBytes 10
param **.application.ttl 999999s
param **application.destinationAddr "\"Wf:00:00:00:00:02\""
param **application.destinationBTAddr "\"Bt:00:00:00:00:02\""
param **application.nodesThatGen true
param **application.nodesGenMsg "\"0\""
param **application.startMultipleMsg true
param **application.numMultipleMsg 100
param **application.hopsListSize 50
param **.routingLayer "\"RoutingLayer\""
param **.routing.maximumCacheSize 5000byte
param **.routing.maximumHopCount 25
param **.routing.useTTL false
param **.neighboring.antiEntropyInterval 200ms
param **.neighboring.maximumRandomBackoffDuration 1s
param **.neighboring.delayPerDataMsg 0.1
param **neighboring.usedRNG 2
param **.neighboring.GWAddr "\"02:00:00:00:00:03\""
param **.neighboring.sendWifiFirst true
param **.neighboring.maxLengthGraph 20
param **.wirelessIfc.wirelessRange 15m
param **.wirelessIfc.neighbourScanInterval 50ms
param **.wirelessIfc.bandwidthBitRate 100000bps
param **.wirelessIfc.wirelessHeaderSize 32byte
param **.wirelessIfc.minSSI -90
param **.bluetoothIfc.wirelessRange 15m
param **.bluetoothIfc.neighbourScanInterval 100ms
param **.bluetoothIfc.bandwidthBitRate 100000bps
param **.bluetoothIfc.wirelessHeaderSize 16byte
param **.bluetoothIfc.minSSI -90
param **.mobilityType "\"BonnMotionMobility\""
param **.mobility.traceFile "\"paths/Moves2.movements\""
param **.mobility.nodeId -1

vector 0 NetworkTormV2 neighbourhoodSize:vector ETV
attr source neighbourhoodSize
vector 1 NetworkTormV2 deliveryRatio:vector ETV
attr source sum(totalDataBytesReceived)/sum(totalDataBytesReceivableByAllNodes)
vector 2 NetworkTormV2 dataBytesReceivedSum:vector ETV
attr source sum(dataBytesReceived)
vector 3 NetworkTormV2 totalBytesReceivedSum:vector ETV
attr source sum(totalBytesReceived)
0	13	0.05	2
0	14	0.05	2
0	15	0.05	2
0	16	0.05	2
0	26	0.1	2
0	27	0.1	2
0	28	0.1	2
0	29	0.1	2
0	30	0.1	2
0	31	0.1	2
0	32	0.1	2
0	33	0.1	2
0	149	0.15	2
0	150	0.15	2
0	151	0.15	2
0	152	0.15	2
0	261	0.2	2
0	262	0.2	2
0	263	0.2	2
0	264	0.2	2
0	265	0.2	2
0	266	0.2	2
0	267	0.2	2
0	268	0.2	2
0	285	0.25	2
0	286	0.25	2
0	287	0.25	2
0	288	0.25	2
0	297	0.3	2
0	298	0.3	2
0	299	0.3	2
0	300	0.3	2
0	301	0.3	2
0	302	0.3	2
0	303	0.3	2
0	304	0.3	2
0	321	0.35	2
0	322	0.35	2
0	323	0.35	2
0	324	0.35	2
0	333	0.4	2
0	334	0.4	2
0	335	0.4	2
0	336	0.4	2
0	337	0.4	2
0	338	0.4	2
0	339	0.4	2
0	340	0.4	2
0	357	0.45	2
0	358	0.45	2
0	359	0.45	2
0	360	0.45	2
0	369	0.5	2
0	370	0.5	2
0	371	0.5	2
0	372	0.5	2
0	373	0.5	2
0	374	0.5	2
0	375	0.5	2
0	376	0.5	2
0	393	0.55	2
0	394	0.55	2
0	395	0.55	2
0	396	0.55	2
0	405	0.6	2
0	406	0.6	2
0	407	0.6	2
0	408	0.6	2
0	409	0.6	2
0	410	0.6	2
0	411	0.6	2
0	412	0.6	2
0	429	0.65	2
0	430	0.65	2
0	431	0.65	2
0	432	0.65	2
0	441	0.7	2
0	442	0.7	2
0	443	0.7	2
0	444	0.7	2
0	445	0.7	2
0	446	0.7	2
0	447	0.7	2
0	448	0.7	2
0	465	0.75	2
0	466	0.75	2
0	467	0.75	2
0	468	0.75	2
0	477	0.8	2
0	478	0.8	2
0	479	0.8	2
0	480	0.8	2
0	481	0.8	2
0	482	0.8	2
0	483	0.8	2
0	484	0.8	2
0	501	0.85	2
0	502	0.85	2
0	503	0.85	2
0	504	0.85	2
0	513	0.9	2
0	514	0.9	2
0	515	0.9	2
0	516	0.9	2
0	517	0.9	2
0	518	0.9	2
0	519	0.9	2
0	520	0.9	2
0	537	0.95	2
0	538	0.95	2
0	539	0.95	2
0	540	0.95	2
0	549	1	2
0	550	1	2
0	551	1	2
0	552	1	2
0	553	1	2
0	554	1	2
0	555	1	2
0	556	1	2
0	573	1.05	2
0	574	1.05	2
0	575	1.05	2
0	576	1.05	2
0	585	1.1	2
0	586	1.1	2
0	587	1.1	2
0	588	1.1	2
0	589	1.1	2
0	590	1.1	2
0	591	1.1	2
0	592	1.1	2
0	1163	1.15	2
0	1164	1.15	2
0	1165	1.15	2
0	1166	1.15	2
0	1271	1.2	2
0	1272	1.2	2
0	1273	1.2	2
0	1274	1.2	2
0	1275	1.2	2
0	1276	1.2	2
0	1277	1.2	2
0	1278	1.2	2
0	1385	1.25	2
0	1386	1.25	2
0	1387	1.25	2
0	1388	1.25	2
0	1487	1.3	2
0	1488	1.3	2
0	1489	1.3	2
0	1490	1.3	2
0	1491	1.3	2
0	1492	1.3	2
0	1493	1.3	2
0	1494	1.3	2
0	1605	1.35	2
0	1606	1.35	2
0	1607	1.35	2
0	1608	1.35	2
0	1893	1.4	2
0	1894	1.4	2
0	1895	1.4	2
0	1896	1.4	2
0	1897	1.4	2
0	1898	1.4	2
0	1899	1.4	2
0	1900	1.4	2
0	2061	1.45	2
0	2062	1.45	2
0	2063	1.45	2
0	2064	1.45	2
0	2227	1.5	2
0	2228	1.5	2
0	2229	1.5	2
0	2230	1.5	2
0	2231	1.5	2
0	2232	1.5	2
0	2233	1.5	2
0	2234	1.5	2
0	2395	1.55	2
0	2396	1.55	2
0	2397	1.55	2
0	2398	1.55	2
0	2598	1.6	2
0	2599	1.6	2
0	2600	1.6	2
0	2601	1.6	2
0	2602	1.6	2
0	2603	1.6	2
0	2604	1.6	2
0	2605	1.6	2
0	2762	1.65	2
0	2763	1.65	2
0	2764	1.65	2
0	2765	1.65	2
0	2928	1.7	2
0	2929	1.7	2
0	2930	1.7	2
0	2931	1.7	2
0	2932	1.7	2
0	2933	1.7	2
0	2934	1.7	2
0	2935	1.7	2
0	3237	1.75	2
0	3238	1.75	2
0	3239	1.75	2
0	3240	1.75	2
0	3423	1.8	2
0	3424	1.8	2
0	3425	1.8	2
0	3426	1.8	2
0	3427	1.8	2
0	3428	1.8	2
0	3429	1.8	2
0	3430	1.8	2
0	3741	1.85	2
0	3742	1.85	2
0	3743	1.85	2
0	3744	1.85	2
0	3996	1.9	2
0	3997	1.9	2
0	3998	1.9	2
0	3999	1.9	2
0	4000	1.9	2
0	4001	1.9	2
0	4002	1.9	2
0	4003	1.9	2
0	4258	1.95	2
0	4259	1.95	2
0	4260	1.95	2
0	4261	1.95	2
0	4516	2	2
0	4517	2	2
0	4518	2	2
0	4519	2	2
0	4520	2	2
0	4521	2	2
0	4522	2	2
0	4523	2	2
0	4764	2.05	2
0	4765	2.05	2
0	4766	2.05	2
0	4767	2.05	2
0	5084	2.1	2
0	5085	2.1	2
0	5086	2.1	2
0	5087	2.1	2
0	5088	2.1	2
0	5089	2.1	2
0	5090	2.1	2
0	5091	2.1	2
0	5246	2.15	2
0	5247	2.15	2
0	5248	2.15	2
0	5249	2.15	2
0	5408	2.2	2
0	5409	2.2	2
0	5410	2.2	2
0	5411	2.2	2
0	5412	2.2	2
0	5413	2.2	2
0	5414	2.2	2
0	5415	2.2	2
0	5591	2.25	2
0	5592	2.25	2
0	5593	2.25	2
0	5594	2.25	2
0	5693	2.3	2
0	5694	2.3	2
0	5695	2.3	2
0	5696	2.3	2
0	5697	2.3	2
0	5698	2.3	2
0	5699	2.3	2
0	5700	2.3	2
0	5822	2.35	2
0	5823	2.35	2
0	5824	2.35	2
0	5825	2.35	2
0	5954	2.4	2
0	5955	2.4	2
0	5956	2.4	2
0	5957	2.4	2
0	5958	2.4	2
0	5959	2.4	2
0	5960	2.4	2
0	5961	2.4	2
0	6049	2.45	2
0	6050	2.45	2
0	6051	2.45	2
0	6052	2.45	2
0	6194	2.5	2
0	6195	2.5	2
0	6196	2.5	2
0	6197	2.5	2
0	6198	2.5	2
0	6199	2.5	2
0	6200	2.5	2
0	6201	2.5	2
0	6334	2.55	2
0	6335	2.55	2
0	6336	2.55	2
0	6337	2.55	2
0	6432	2.6	2
0	6433	2.6	2
0	6434	2.6	2
0	6435	2.6	2
0	6436	2.6	2
0	6437	2.6	2
0	6438	2.6	2
0	6439	2.6	2
0	6469	2.65	2
0	6470	2.65	2
0	6471	2.65	2
0	6472	2.65	2
0	6507	2.7	2
0	6508	2.7	2
0	6509	2.7	2
0	6510	2.7	2
0	6511	2.7	2
0	6512	2.7	2
0	6513	2.7	2
0	6514	2.7	2
0	6531	2.75	2
0	6532	2.75	2
0	6533	2.75	2
0	6534	2.75	2
0	6556	2.8	2
0	6557	2.8	2
0	6558	2.8	2
0	6559	2.8	2
0	6560	2.8	2
0	6561	2.8	2
0	6562	2.8	2
0	6563	2.8	2
0	6632	2.85	2
0	6633	2.85	2
0	6634	2.85	2
0	6635	2.85	2
0	6644	2.9	2
0	6645	2.9	2
0	6646	2.9	2
0	6647	2.9	2
0	6648	2.9	2
0	6649	2.9	2
0	6650	2.9	2
0	6651	2.9	2
0	6681	2.95	2
0	6682	2.95	2
0	6683	2.95	2
0	6684	2.95	2
0	6719	3	2
0	6720	3	2
0	6721	3	2
0	6722	3	2
0	6723	3	2
0	6724	3	2
0	6725	3	2
0	6726	3	2
0	6743	3.05	2
0	6744	3.05	2
0	6745	3.05	2
0	6746	3.05	2
0	6794	3.1	2
0	6795	3.1	2
0	6796	3.1	2
0	6797	3.1	2
0	6798	3.1	2
0	6799	3.1	2
0	6800	3.1	2
0	6801	3.1	2
0	6844	3.15	2
0	6845	3.15	2
0	6846	3.15	2
0	6847	3.15	2
0	6856	3.2	2
0	6857	3.2	2
0	6858	3.2	2
0	6859	3.2	2
0	6860	3.2	2
0	6861	3.2	2
0	6862	3.2	2
0	6863	3.2	2
0	6893	3.25	2
0	6894	3.25	2
0	6895	3.25	2
0	6896	3.25	2
0	6931	3.3	2
0	6932	3.3	2
0	6933	3.3	2
0	6934	3.3	2
0	6935	3.3	2
0	6936	3.3	2
0	6937	3.3	2
0	6938	3.3	2
0	6981	3.35	2
0	6982	3.35	2
0	6983	3.35	2
0	6984	3.35	2
0	7006	3.4	2
0	7007	3.4	2
0	7008	3.4	2
0	7009	3.4	2
0	7010	3.4	2
0	7011	3.4	2
0	7012	3.4	2
0	7013	3.4	2
0	7056	3.45	2
0	7057	3.45	2
0	7058	3.45	2
0	7059	3.45	2
0	7068	3.5	2
0	7069	3.5	2
0	7070	3.5	2
0	7071	3.5	2
0	7072	3.5	2
0	7073	3.5	2
0	7074	3.5	2
0	7075	3.5	2
0	7105	3.55	2
0	7106	3.55	2
0	7107	3.55	2
0	7108	3.55	2
0	7169	3.6	2
0	7170	3.6	2
0	7171	3.6	2
0	7172	3.6	2
0	7173	3.6	2
0	7174	3.6	2
0	7175	3.6	2
0	7176	3.6	2
0	7193	3.65	2
0	7194	3.65	2
0	7195	3.65	2
0	7196	3.65	2
0	7218	3.7	2
0	7219	3.7	2
0	7220	3.7	2
0	7221	3.7	2
0	7222	3.7	2
0	7223	3.7	2
0	7224	3.7	2
0	7225	3.7	2
0	7268	3.75	2
0	7269	3.75	2
0	7270	3.75	2
0	7271	3.75	2
0	7280	3.8	2
0	7281	3.8	2
0	7282	3.8	2
0	7283	3.8	2
0	7284	3.8	2
0	7285	3.8	2
0	7286	3.8	2
0	7287	3.8	2
0	7343	3.85	2
0	7344	3.85	2
0	7345	3.85	2
0	7346	3.85	2
0	7381	3.9	2
0	7382	3.9	2
0	7383	3.9	2
0	7384	3.9	2
0	7385	3.9	2
0	7386	3.9	2
0	7387	3.9	2
0	7388	3.9	2
0	7405	3.95	2
0	7406	3.95	2
0	7407	3.95	2
0	7408	3.95	2
0	7430	4	2
0	7431	4	2
0	7432	4	2
0	7433	4	2
0	7434	4	2
0	7435	4	2
0	7436	4	2
0	7437	4	2
0	7480	4.05	2
0	7481	4.05	2
0	7482	4.05	2
0	7483	4.05	2
0	7518	4.1	2
0	7519	4.1	2
0	7520	4.1	2
0	7521	4.1	2
0	7522	4.1	2
0	7523	4.1	2
0	7524	4.1	2
0	7525	4.1	2
0	7555	4.15	2
0	7556	4.15	2
0	7557	4.15	2
0	7558	4.15	2
0	7593	4.2	2
0	7594	4.2	2
0	7595	4.2	2
0	7596	4.2	2
0	7597	4.2	2
0	7598	4.2	2
0	7599	4.2	2
0	7600	4.2	2
0	7617	4.25	2
0	7618	4.25	2
0	7619	4.25	2
0	7620	4.25	2
0	7642	4.3	2
0	7643	4.3	2
0	7644	4.3	2
0	7645	4.3	2
0	7646	4.3	2
0	7647	4.3	2
0	7648	4.3	2
0	7649	4.3	2
0	7718	4.35	2
0	7719	4.35	2
0	7720	4.35	2
0	7721	4.35	2
0	7730	4.4	2
0	7731	4.4	2
0	7732	4.4	2
0	7733	4.4	2
0	7734	4.4	2
0	7735	4.4	2
0	7736	4.4	2
0	7737	4.4	2
0	7767	4.45	2
0	7768	4.45	2
0	7769	4.45	2
0	7770	4.45	2
0	7805	4.5	2
0	7806	4.5	2
0	7807	4.5	2
0	7808	4.5	2
0	7809	4.5	2
0	7810	4.5	2
0	7811	4.5	2
0	7812	4.5	2
0	7829	4.55	2
0	7830	4.55	2
0	7831	4.55	2
0	7832	4.55	2
0	7880	4.6	2
0	7881	4.6	2
0	7882	4.6	2
0	7883	4.6	2
0	7884	4.6	2
0	7885	4.6	2
0	7886	4.6	2
0	7887	4.6	2
0	7930	4.65	2
0	7931	4.65	2
0	7932	4.65	2
0	7933	4.65	2
0	7942	4.7	2
0	7943	4.7	2
0	7944	4.7	2
0	7945	4.7	2
0	7946	4.7	2
0	7947	4.7	2
0	7948	4.7	2
0	7949	4.7	2
0	7979	4.75	2
0	7980	4.75	2
0	7981	4.75	2
0	7982	4.75	2
0	8017	4.8	2
0	8018	4.8	2
0	8019	4.8	2
0	8020	4.8	2
0	8021	4.8	2
0	8022	4.8	2
0	8023	4.8	2
0	8024	4.8	2
0	8067	4.85	2
0	8068	4.85	2
0	8069	4.85	2
0	8070	4.85	2
0	8092	4.9	2
0	8093	4.9	2
0	8094	4.9	2
0	8095	4.9	2
0	8096	4.9	2
0	8097	4.9	2
0	8098	4.9	2
0	8099	4.9	2
0	8142	4.95	2
0	8143	4.95	2
0	8144	4.95	2
0	8145	4.95	2
0	8154	5	2
0	8155	5	2
0	8156	5	2
0	8157	5	2
0	8158	5	2
0	8159	5	2
0	8160	5	2
0	8161	5	2
0	8191	5.05	2
0	8192	5.05	2
0	8193	5.05	2
0	8194	5.05	2
0	8255	5.1	2
0	8256	5.1	2
0	8257	5.1	2
0	8258	5.1	2
0	8259	5.1	2
0	8260	5.1	2
0	8261	5.1	2
0	8262	5.1	2
0	8279	5.15	2
0	8280	5.15	2
0	8281	5.15	2
0	8282	5.15	2
0	8304	5.2	2
0	8305	5.2	2
0	8306	5.2	2
0	8307	5.2	2
0	8308	5.2	2
0	8309	5.2	2
0	8310	5.2	2
0	8311	5.2	2
0	8354	5.25	2
0	8355	5.25	2
0	8356	5.25	2
0	8357	5.25	2
0	8366	5.3	2
0	8367	5.3	2
0	8368	5.3	2
0	8369	5.3	2
0	8370	5.3	2
0	8371	5.3	2
0	8372	5.3	2
0	8373	5.3	2
0	8429	5.35	2
0	8430	5.35	2
0	8431	5.35	2
0	8432	5.35	2
0	8467	5.4	2
0	8468	5.4	2
0	8469	5.4	2
0	8470	5.4	2
0	8471	5.4	2
0	8472	5.4	2
0	8473	5.4	2
0	8474	5.4	2
0	8491	5.45	2
0	8492	5.45	2
0	8493	5.45	2
0	8494	5.45	2
0	8516	5.5	2
0	8517	5.5	2
0	8518	5.5	2
0	8519	5.5	2
0	8520	5.5	2
0	8521	5.5	2
0	8522	5.5	2
0	8523	5.5	2
0	8566	5.55	2
0	8567	5.55	2
0	8568	5.55	2
0	8569	5.55	2
0	8604	5.6	2
0	8605	5.6	2
0	8606	5.6	2
0	8607	5.6	2
0	8608	5.6	2
0	8609	5.6	2
0	8610	5.6	2
0	8611	5.6	2
0	8641	5.65	2
0	8642	5.65	2
0	8643	5.65	2
0	8644	5.65	2
0	8679	5.7	2
0	8680	5.7	2
0	8681	5.7	2
0	8682	5.7	2
0	8683	5.7	2
0	8684	5.7	2
0	8685	5.7	2
0	8686	5.7	2
0	8703	5.75	2
0	8704	5.75	2
0	8705	5.75	2
0	8706	5.75	2
0	8728	5.8	2
0	8729	5.8	2
0	8730	5.8	2
0	8731	5.8	2
0	8732	5.8	2
0	8733	5.8	2
0	8734	5.8	2
0	8735	5.8	2
0	8804	5.85	2
0	8805	5.85	2
0	8806	5.85	2
0	8807	5.85	2
0	8816	5.9	2
0	8817	5.9	2
0	8818	5.9	2
0	8819	5.9	2
0	8820	5.9	2
0	8821	5.9	2
0	8822	5.9	2
0	8823	5.9	2
0	8853	5.95	2
0	8854	5.95	2
0	8855	5.95	2
0	8856	5.95	2
0	8891	6	2
0	8892	6	2
0	8893	6	2
0	8894	6	2
0	8895	6	2
0	8896	6	2
0	8897	6	2
0	8898	6	2
0	8915	6.05	2
0	8916	6.05	2
0	8917	6.05	2
0	8918	6.05	2
0	8966	6.1	2
0	8967	6.1	2
0	8968	6.1	2
0	8969	6.1	2
0	8970	6.1	2
0	8971	6.1	2
0	8972	6.1	2
0	8973	6.1	2
0	9016	6.15	2
0	9017	6.15	2
0	9018	6.15	2
0	9019	6.15	2
0	9028	6.2	2
0	9029	6.2	2
0	9030	6.2	2
0	9031	6.2	2
0	9032	6.2	2
0	9033	6.2	2
0	9034	6.2	2
0	9035	6.2	2
0	9065	6.25	2
0	9066	6.25	2
0	9067	6.25	2
0	9068	6.25	2
0	9103	6.3	2
0	9104	6.3	2
0	9105	6.3	2
0	9106	6.3	2
0	9107	6.3	2
0	9108	6.3	2
0	9109	6.3	2
0	9110	6.3	2
0	9153	6.35	2
0	9154	6.35	2
0	9155	6.35	2
0	9156	6.35	2
0	9178	6.4	2
0	9179	6.4	2
0	9180	6.4	2
0	9181	6.4	2
0	9182	6.4	2
0	9183	6.4	2
0	9184	6.4	2
0	9185	6.4	2
0	9228	6.45	2
0	9229	6.45	2
0	9230	6.45	2
0	9231	6.45	2
0	9240	6.5	2
0	9241	6.5	2
0	9242	6.5	2
0	9243	6.5	2
0	9244	6.5	2
0	9245	6.5	2
0	9246	6.5	2
0	9247	6.5	2
0	9277	6.55	2
0	9278	6.55	2
0	9279	6.55	2
0	9280	6.55	2
0	9341	6.6	2
0	9342	6.6	2
0	9343	6.6	2
0	9344	6.6	2
0	9345	6.6	2
0	9346	6.6	2
0	9347	6.6	2
0	9348	6.6	2
0	9365	6.65	2
0	9366	6.65	2
0	9367	6.65	2
0	9368	6.65	2
0	9390	6.7	2
0	9391	6.7	2
0	9392	6.7	2
0	9393	6.7	2
0	9394	6.7	2
0	9395	6.7	2
0	9396	6.7	2
0	9397	6.7	2
0	9440	6.75	2
0	9441	6.75	2
0	9442	6.75	2
0	9443	6.75	2
0	9452	6.8	2
0	9453	6.8	2
0	9454	6.8	2
0	9455	6.8	2
0	9456	6.8	2
0	9457	6.8	2
0	9458	6.8	2
0	9459	6.8	2
0	9515	6.85	2
0	9516	6.85	2
0	9517	6.85	2
0	9518	6.85	2
0	9553	6.9	2
0	9554	6.9	2
0	9555	6.9	2
0	9556	6.9	2
0	9557	6.9	2
0	9558	6.9	2
0	9559	6.9	2
0	9560	6.9	2
0	9577	6.95	2
0	9578	6.95	2
0	9579	6.95	2
0	9580	6.95	2
0	9602	7	2
0	9603	7	2
0	9604	7	2
0	9605	7	2
0	9606	7	2
0	9607	7	2
0	9608	7	2
0	9609	7	2
0	9652	7.05	2
0	9653	7.05	2
0	9654	7.05	2
0	9655	7.05	2
0	9690	7.1	2
0	9691	7.1	2
0	9692	7.1	2
0	9693	7.1	2
0	9694	7.1	2
0	9695	7.1	2
0	9696	7.1	2
0	9697	7.1	2
0	9727	7.15	2
0	9728	7.15	2
0	9729	7.15	2
0	9730	7.15	2
0	9765	7.2	2
0	9766	7.2	2
0	9767	7.2	2
0	9768	7.2	2
0	9769	7.2	2
0	9770	7.2	2
0	9771	7.2	2
0	9772	7.2	2
0	9789	7.25	2
0	9790	7.25	2
0	9791	7.25	2
0	9792	7.25	2
0	9814	7.3	2
0	9815	7.3	2
0	9816	7.3	2
0	9817	7.3	2
0	9818	7.3	2
0	9819	7.3	2
0	9820	7.3	2
0	9821	7.3	2
0	9890	7.35	2
0	9891	7.35	2
0	9892	7.35	2
0	9893	7.35	2
0	9902	7.4	2
0	9903	7.4	2
0	9904	7.4	2
0	9905	7.4	2
0	9906	7.4	2
0	9907	7.4	2
0	9908	7.4	2
0	9909	7.4	2
0	9939	7.45	2
0	9940	7.45	2
0	9941	7.45	2
0	9942	7.45	2
0	9977	7.5	2
0	9978	7.5	2
0	9979	7.5	2
0	9980	7.5	2
0	9981	7.5	2
0	9982	7.5	2
0	9983	7.5	2
0	9984	7.5	2
0	10001	7.55	2
0	10002	7.55	2
0	10003	7.55	2
0	10004	7.55	2
0	10052	7.6	2
0	10053	7.6	2
0	10054	7.6	2
0	10055	7.6	2
0	10056	7.6	2
0	10057	7.6	2
0	10058	7.6	2
0	10059	7.6	2
0	10102	7.65	2
0	10103	7.65	2
0	10104	7.65	2
0	10105	7.65	2
0	10114	7.7	2
0	10115	7.7	2
0	10116	7.7	2
0	10117	7.7	2
0	10118	7.7	2
0	10119	7.7	2
0	10120	7.7	2
0	10121	7.7	2
0	10151	7.75	2
0	10152	7.75	2
0	10153	7.75	2
0	10154	7.75	2
0	10189	7.8	2
0	10190	7.8	2
0	10191	7.8	2
0	10192	7.8	2
0	10193	7.8	2
0	10194	7.8	2
0	10195	7.8	2
0	10196	7.8	2
0	10239	7.85	2
0	10240	7.85	2
0	10241	7.85	2
0	10242	7.85	2
0	10264	7.9	2
0	10265	7.9	2
0	10266	7.9	2
0	10267	7.9	2
0	10268	7.9	2
0	10269	7.9	2
0	10270	7.9	2
0	10271	7.9	2
0	10314	7.95	2
0	10315	7.95	2
0	10316	7.95	2
0	10317	7.95	2
0	10326	8	2
0	10327	8	2
0	10328	8	2
0	10329	8	2
0	10330	8	2
0	10331	8	2
0	10332	8	2
0	10333	8	2
0	10363	8.05	2
0	10364	8.05	2
0	10365	8.05	2
0	10366	8.05	2
0	10427	8.1	2
0	10428	8.1	2
0	10429	8.1	2
0	10430	8.1	2
0	10431	8.1	2
0	10432	8.1	2
0	10433	8.1	2
0	10434	8.1	2
0	10451	8.15	2
0	10452	8.15	2
0	10453	8.15	2
0	10454	8.15	2
0	10476	8.2	2
0	10477	8.2	2
0	10478	8.2	2
0	10479	8.2	2
0	10480	8.2	2
0	10481	8.2	2
0	10482	8.2	2
0	10483	8.2	2
0	10526	8.25	2
0	10527	8.25	2
0	10528	8.25	2
0	10529	8.25	2
0	10538	8.3	2
0	10539	8.3	2
0	10540	8.3	2
0	10541	8.3	2
0	10542	8.3	2
0	10543	8.3	2
0	10544	8.3	2
0	10545	8.3	2
0	10601	8.35	2
0	10602	8.35	2
0	10603	8.35	2
0	10604	8.35	2
0	10639	8.4	2
0	10640	8.4	2
0	10641	8.4	2
0	10642	8.4	2
0	10643	8.4	2
0	10644	8.4	2
0	10645	8.4	2
0	10646	8.4	2
0	10663	8.45	2
0	10664	8.45	2
0	10665	8.45	2
0	10666	8.45	2
0	10688	8.5	2
0	10689	8.5	2
0	10690	8.5	2
0	10691	8.5	2
0	10692	8.5	2
0	10693	8.5	2
0	10694	8.5	2
0	10695	8.5	2
0	10738	8.55	2
0	10739	8.55	2
0	10740	8.55	2
0	10741	8.55	2
0	10776	8.6	2
0	10777	8.6	2
0	10778	8.6	2
0	10779	8.6	2
0	10780	8.6	2
0	10781	8.6	2
0	10782	8.6	2
0	10783	8.6	2
0	10813	8.65	2
0	10814	8.65	2
0	10815	8.65	2
0	10816	8.65	2
0	10851	8.7	2
0	10852	8.7	2
0	10853	8.7	2
0	10854	8.7	2
0	10855	8.7	2
0	10856	8.7	2
0	10857	8.7	2
0	10858	8.7	2
0	10875	8.75	2
0	10876	8.75	2
0	10877	8.75	2
0	10878	8.75	2
0	10900	8.8	2
0	10901	8.8	2
0	10902	8.8	2
0	10903	8.8	2
0	10904	8.8	2
0	10905	8.8	2
0	10906	8.8	2
0	10907	8.8	2
0	10976	8.85	2
0	10977	8.85	2
0	10978	8.85	2
0	10979	8.85	2
0	10988	8.9	2
0	10989	8.9	2
0	10990	8.9	2
0	10991	8.9	2
0	10992	8.9	2
0	10993	8.9	2
0	10994	8.9	2
0	10995	8.9	2
0	11025	8.95	2
0	11026	8.95	2
0	11027	8.95	2
0	11028	8.95	2
0	11063	9	2
0	11064	9	2
0	11065	9	2
0	11066	9	2
0	11067	9	2
0	11068	9	2
0	11069	9	2
0	11070	9	2
0	11087	9.05	2
0	11088	9.05	2
0	11089	9.05	2
0	11090	9.05	2
0	11138	9.1	2
0	11139	9.1	2
0	11140	9.1	2
0	11141	9.1	2
0	11142	9.1	2
0	11143	9.1	2
0	11144	9.1	2
0	11145	9.1	2
0	11188	9.15	2
0	11189	9.15	2
0	11190	9.15	2
0	11191	9.15	2
0	11200	9.2	2
0	11201	9.2	2
0	11202	9.2	2
0	11203	9.2	2
0	11204	9.2	2
0	11205	9.2	2
0	11206	9.2	2
0	11207	9.2	2
0	11237	9.25	2
0	11238	9.25	2
0	11239	9.25	2
0	11240	9.25	2
0	11301	9.3	2
0	11302	9.3	2
0	11303	9.3	2
0	11304	9.3	2
0	11305	9.3	2
0	11306	9.3	2
0	11307	9.3	2
0	11308	9.3	2
0	11325	9.35	2
0	11326	9.35	2
0	11327	9.35	2
0	11328	9.35	2
0	11350	9.4	2
0	11351	9.4	2
0	11352	9.4	2
0	11353	9.4	2
0	11354	9.4	2
0	11355	9.4	2
0	11356	9.4	2
0	11357	9.4	2
0	11400	9.45	2
0	11401	9.45	2
0	11402	9.45	2
0	11403	9.45	2
0	11412	9.5	2
0	11413	9.5	2
0	11414	9.5	2
0	11415	9.5	2
0	11416	9.5	2
0	11417	9.5	2
0	11418	9.5	2
0	11419	9.5	2
0	11475	9.55	2
0	11476	9.55	2
0	11477	9.55	2
0	11478	9.55	2
0	11513	9.6	2
0	11514	9.6	2
0	11515	9.6	2
0	11516	9.6	2
0	11517	9.6	2
0	11518	9.6	2
0	11519	9.6	2
0	11520	9.6	2
0	11537	9.65	2
0	11538	9.65	2
0	11539	9.65	2
0	11540	9.65	2
0	11562	9.7	2
0	11563	9.7	2
0	11564	9.7	2
0	11565	9.7	2
0	11566	9.7	2
0	11567	9.7	2
0	11568	9.7	2
0	11569	9.7	2
0	11612	9.75	2
0	11613	9.75	2
0	11614	9.75	2
0	11615	9.75	2
0	11650	9.8	2
0	11651	9.8	2
0	11652	9.8	2
0	11653	9.8	2
0	11654	9.8	2
0	11655	9.8	2
0	11656	9.8	2
0	11657	9.8	2
0	11687	9.85	2
0	11688	9.85	2
0	11689	9.85	2
0	11690	9.85	2
0	11725	9.9	2
0	11726	9.9	2
0	11727	9.9	2
0	11728	9.9	2
0	11729	9.9	2
0	11730	9.9	2
0	11731	9.9	2
0	11732	9.9	2
0	11749	9.95	2
0	11750	9.95	2
0	11751	9.95	2
0	11752	9.95	2
0	11774	10	2
0	11775	10	2
0	11776	10	2
0	11777	10	2
0	11778	10	2
0	11779	10	2
0	11780	10	2
0	11781	10	2
1	25	0.1	-nan
1	51	0.101	-nan
1	53	0.102	-nan
1	55	0.103	-nan
1	57	0.104	-nan
1	59	0.105	-nan
1	61	0.106	-nan
1	63	0.107	-nan
1	65	0.108	-nan
1	67	0.109	-nan
1	69	0.11	-nan
1	71	0.111	-nan
1	73	0.112	-nan
1	75	0.113	-nan
1	77	0.114	-nan
1	79	0.115	-nan
1	81	0.116	-nan
1	83	0.117	-nan
1	85	0.118	-nan
1	87	0.119	-nan
1	89	0.12	-nan
1	91	0.121	-nan
1	93	0.122	-nan
1	95	0.123	-nan
1	97	0.124	-nan
1	99	0.125	-nan
1	101	0.126	-nan
1	103	0.127	-nan
1	105	0.128	-nan
1	107	0.129	-nan
1	109	0.13	-nan
1	111	0.131	-nan
1	113	0.132	-nan
1	115	0.133	-nan
1	117	0.134	-nan
1	119	0.135	-nan
1	121	0.136	-nan
1	123	0.137	-nan
1	125	0.138	-nan
1	127	0.139	-nan
1	129	0.14	-nan
1	131	0.141	-nan
1	133	0.142	-nan
1	135	0.143	-nan
1	137	0.144	-nan
1	139	0.145	-nan
1	141	0.146	-nan
1	143	0.147	-nan
1	145	0.148	-nan
1	147	0.149	-nan
1	153	0.15	-nan
1	163	0.151	-nan
1	165	0.152	-nan
1	167	0.153	-nan
1	169	0.154	-nan
1	171	0.155	-nan
1	173	0.156	-nan
1	175	0.157	-nan
1	177	0.158	-nan
1	179	0.159	-nan
1	181	0.16	-nan
1	183	0.161	-nan
1	185	0.162	-nan
1	187	0.163	-nan
1	189	0.164	-nan
1	191	0.165	-nan
1	193	0.166	-nan
1	195	0.167	-nan
1	197	0.168	-nan
1	199	0.169	-nan
1	201	0.17	-nan
1	203	0.171	-nan
1	205	0.172	-nan
1	207	0.173	-nan
1	209	0.174	-nan
1	211	0.175	-nan
1	213	0.176	-nan
1	215	0.177	-nan
1	217	0.178	-nan
1	219	0.179	-nan
1	221	0.18	-nan
1	223	0.181	-nan
1	225	0.182	-nan
1	227	0.183	-nan
1	229	0.184	-nan
1	231	0.185	-nan
1	233	0.186	-nan
1	235	0.187	-nan
1	237	0.188	-nan
1	239	0.189	-nan
1	241	0.19	-nan
1	243	0.191	-nan
1	245	0.192	-nan
1	247	0.193	-nan
1	249	0.194	-nan
1	251	0.195	-nan
1	253	0.196	-nan
1	255	0.197	-nan
1	257	0.198	-nan
1	259	0.199	-nan
2	1116	1.12368	36
2	1126	1.12912	72
2	1136	1.13456	108
2	1146	1.14	144
2	1156	1.14544	180
2	1178	1.15088	216
2	1188	1.15632	252
2	1198	1.16176	288
2	1208	1.1672	324
2	1218	1.17264	360
2	1228	1.17808	396
2	1238	1.18352	432
2	1248	1.18896	468
2	1258	1.1944	504
2	1268	1.19984	540
2	1302	1.20528	576
2	1312	1.21072	612
2	1322	1.21616	648
2	1332	1.2216	684
2	1342	1.22704	720
2	1352	1.23248	756
2	1362	1.23792	792
2	1372	1.24336	828
2	1382	1.2488	864
2	1404	1.25424	900
2	1414	1.25968	936
2	1424	1.26512	972
2	1434	1.27056	1008
2	1444	1.276	1044
2	1454	1.28144	1080
2	1464	1.28688	1116
2	1474	1.29232	1152
2	1484	1.29776	1188
2	1518	1.3032	1224
2	1528	1.30864	1260
2	1538	1.31408	1296
2	1548	1.31952	1332
2	1558	1.32496	1368
2	1568	1.3304	1404
2	1578	1.33584	1440
2	1588	1.34128	1476
2	1598	1.34672	1512
2	1636	1.35216	1548
2	1663	1.3576	1584
2	1694	1.36304	1620
2	1806	1.36848	1656
2	1820	1.37392	1692
2	1826	1.37672	1728
2	1836	1.37936	1764
2	1842	1.38216	1800
2	1852	1.3848	1836
2	1858	1.3876	1872
2	1868	1.39024	1908
2	1874	1.39304	1944
2	1884	1.39568	1980
2	1890	1.39848	2016
2	1924	1.40112	2052
2	1930	1.40392	2088
2	1940	1.40656	2124
2	1946	1.40936	2160
2	1956	1.412	2196
2	1962	1.4148	2232
2	1972	1.41744	2268
2	1978	1.42024	2304
2	1988	1.42288	2340
2	1994	1.42568	2376
2	2004	1.42832	2412
2	2010	1.43112	2448
2	2020	1.43376	2484
2	2026	1.43656	2520
2	2036	1.4392	2556
2	2042	1.442	2592
2	2052	1.44464	2628
2	2058	1.44744	2664
2	2080	1.45008	2700
2	2086	1.45288	2736
2	2096	1.45552	2772
2	2102	1.45832	2808
2	2112	1.46096	2844
2	2118	1.46376	2880
2	2128	1.4664	2916
2	2134	1.4692	2952
2	2144	1.47184	2988
2	2150	1.47464	3024
2	2160	1.47728	3060
2	2166	1.48008	3096
2	2176	1.48272	3132
2	2182	1.48552	3168
2	2192	1.48816	3204
2	2198	1.49096	3240
2	2208	1.4936	3276
2	2214	1.4964	3312
2	2224	1.49904	3348
2	2254	1.50184	3384
2	2264	1.50448	3420
2	2270	1.50728	3456
2	2280	1.50992	3492
2	2286	1.51272	3528
2	2296	1.51536	3564
2	2302	1.51816	3600
2	2312	1.5208	3636
2	2318	1.5236	3672
2	2328	1.52624	3708
2	2334	1.52904	3744
2	2344	1.53168	3780
2	2350	1.53448	3816
2	2360	1.53712	3852
2	2366	1.53992	3888
2	2376	1.54256	3924
2	2382	1.54536	3960
2	2392	1.548	3996
2	2422	1.5508	4032
2	2428	1.55344	4068
2	2448	1.55624	4104
2	2454	1.55888	4140
2	2471	1.56168	4176
2	2481	1.56432	4212
2	2491	1.56712	4248
2	2501	1.56976	4284
2	2511	1.57256	4320
2	2521	1.5752	4356
2	2531	1.578	4392
2	2541	1.58064	4428
2	2547	1.58344	4464
2	2557	1.58608	4500
2	2563	1.58888	4536
2	2573	1.59152	4572
2	2579	1.59432	4608
2	2589	1.59696	4644
2	2595	1.59976	4680
2	2629	1.6024	4716
2	2635	1.6052	4752
2	2645	1.60784	4788
2	2651	1.61064	4824
2	2661	1.61328	4860
2	2667	1.61608	4896
2	2681	1.61872	4932
2	2695	1.62416	4968
2	2709	1.6296	5004
2	2723	1.63504	5040
2	2737	1.64048	5076
2	2751	1.64592	5112
2	2777	1.65136	5148
2	2791	1.6568	5184
2	2809	1.66224	5220
2	2823	1.66768	5256
2	2841	1.67312	5292
2	2859	1.67856	5328
2	2877	1.684	5364
2	2895	1.68944	5400
2	2913	1.69488	5436
2	2955	1.70032	5472
2	2973	1.70576	5508
2	2994	1.7112	5544
2	3122	1.71664	5580
2	3140	1.72208	5616
2	3158	1.72752	5652
2	3180	1.73296	5688
2	3198	1.7384	5724
2	3216	1.74384	5760
2	3234	1.74928	5796
2	3264	1.75472	5832
2	3282	1.76016	5868
2	3300	1.7656	5904
2	3314	1.77104	5940
2	3320	1.77144	5976
2	3334	1.77648	6012
2	3340	1.77688	6048
2	3354	1.78192	6084
2	3360	1.78232	6120
2	3374	1.78736	6156
2	3380	1.78776	6192
2	3394	1.7928	6228
2	3400	1.7932	6264
2	3414	1.79824	6300
2	3420	1.79864	6336
2	3464	1.80368	6372
2	3470	1.80408	6408
2	3498	1.80912	6444
2	3504	1.80952	6480
2	3572	1.81456	6516
2	3578	1.81496	6552
2	3596	1.82	6588
2	3602	1.8204	6624
2	3608	1.82048	6660
2	3618	1.82544	6696
2	3628	1.82584	6732
2	3634	1.82592	6768
2	3644	1.83088	6804
2	3654	1.83128	6840
2	3660	1.83136	6876
2	3670	1.83632	6912
2	3680	1.83672	6948
2	3686	1.8368	6984
2	3696	1.84176	7020
2	3706	1.84216	7056
2	3712	1.84224	7092
2	3722	1.8472	7128
2	3732	1.8476	7164
2	3738	1.84768	7200
2	3762	1.85264	7236
2	3772	1.85304	7272
2	3778	1.85312	7308
2	3791	1.85808	7344
2	3797	1.85848	7380
2	3803	1.85856	7416
2	3817	1.86352	7452
2	3823	1.86392	7488
2	3829	1.864	7524
2	3843	1.86896	7560
2	3849	1.86936	7596
2	3855	1.86944	7632
2	3869	1.8744	7668
2	3875	1.8748	7704
2	3881	1.87488	7740
2	3895	1.87984	7776
2	3904	1.88024	7812
2	3911	1.88032	7848
2	3921	1.88528	7884
2	3931	1.88568	7920
2	3937	1.88576	7956
2	3951	1.89072	7992
2	3957	1.89112	8028
2	3963	1.8912	8064
2	3977	1.89616	8100
2	3983	1.89656	8136
2	3989	1.89664	8172
2	4027	1.9016	8208
2	4033	1.902	8244
2	4039	1.90208	8280
2	4053	1.90704	8316
2	4059	1.90744	8352
2	4065	1.90752	8388
2	4079	1.91248	8424
2	4085	1.91288	8460
2	4091	1.91296	8496
2	4105	1.91792	8532
2	4111	1.91832	8568
2	4117	1.9184	8604
2	4131	1.92336	8640
2	4140	1.92376	8676
2	4147	1.92384	8712
2	4157	1.9288	8748
2	4167	1.9292	8784
2	4173	1.92928	8820
2	4183	1.93424	8856
2	4193	1.93464	8892
2	4199	1.93472	8928
2	4209	1.93968	8964
2	4219	1.94008	9000
2	4225	1.94016	9036
2	4235	1.94512	9072
2	4245	1.94552	9108
2	4251	1.9456	9144
2	4273	1.95056	9180
2	4283	1.95096	9216
2	4289	1.95104	9252
2	4299	1.956	9288
2	4309	1.9564	9324
2	4315	1.95648	9360
2	4325	1.96144	9396
2	4335	1.96184	9432
2	4341	1.96192	9468
2	4355	1.96688	9504
2	4369	1.96728	9540
2	4387	1.97232	9576
2	4393	1.97272	9612
2	4411	1.97776	9648
2	4417	1.97816	9684
2	4435	1.9832	9720
2	4441	1.9836	9756
2	4459	1.98864	9792
2	4465	1.98904	9828
2	4483	1.99408	9864
2	4489	1.99448	9900
2	4507	1.99952	9936
2	4513	1.99992	9972
2	4555	2.00496	10008
2	4561	2.00536	10044
2	4579	2.0104	10080
2	4589	2.0108	10116
2	4607	2.01584	10152
2	4613	2.01624	10188
2	4631	2.02128	10224
2	4637	2.02168	10260
2	4655	2.02672	10296
2	4661	2.02712	10332
2	4679	2.03216	10368
2	4685	2.03256	10404
2	4703	2.0376	10440
2	4709	2.038	10476
2	4727	2.04304	10512
2	4733	2.04344	10548
2	4751	2.04848	10584
2	4757	2.04888	10620
2	4793	2.05392	10656
2	4803	2.05432	10692
2	4828	2.05936	10728
2	4834	2.05976	10764
2	4852	2.0648	10800
2	4858	2.0652	10836
2	4883	2.07024	10872
2	4905	2.07568	10908
2	4925	2.08112	10944
2	4943	2.08656	10980
2	5063	2.092	11016
2	5077	2.09744	11052
2	5115	2.10288	11088
2	5121	2.10704	11124
2	5127	2.10832	11160
2	5137	2.11248	11196
2	5143	2.11376	11232
2	5153	2.11792	11268
2	5159	2.1192	11304
2	5169	2.12336	11340
2	5175	2.12464	11376
2	5185	2.1288	11412
2	5191	2.13008	11448
2	5201	2.13424	11484
2	5207	2.13552	11520
2	5217	2.13968	11556
2	5223	2.14096	11592
2	5233	2.14512	11628
2	5239	2.1464	11664
2	5261	2.15056	11700
2	5267	2.15184	11736
2	5277	2.156	11772
2	5283	2.15728	11808
2	5293	2.16144	11844
2	5299	2.16272	11880
2	5309	2.16688	11916
2	5315	2.16816	11952
2	5325	2.17232	11988
2	5331	2.1736	12024
2	5341	2.17776	12060
2	5347	2.17904	12096
2	5357	2.1832	12132
2	5363	2.18448	12168
2	5373	2.18864	12204
2	5379	2.18992	12240
2	5389	2.19408	12276
2	5395	2.19536	12312
2	5405	2.19952	12348
2	5437	2.2008	12384
2	5447	2.20496	12420
2	5453	2.20624	12456
2	5470	2.2104	12492
2	5501	2.21584	12528
2	5516	2.22128	12564
2	5530	2.22672	12600
2	5547	2.23216	12636
2	5568	2.2376	12672
2	5578	2.24304	12708
2	5588	2.24848	12744
2	5610	2.25392	12780
2	5620	2.25936	12816
2	5630	2.2648	12852
2	5640	2.27024	12888
2	5650	2.27568	12924
2	5660	2.28112	12960
2	5670	2.28656	12996
2	5680	2.292	13032
2	5690	2.29744	13068
2	5728	2.30288	13104
2	5745	2.30832	13140
2	5755	2.31376	13176
2	5765	2.3192	13212
2	5775	2.32464	13248
2	5785	2.33008	13284
2	5795	2.33552	13320
2	5805	2.34096	13356
2	5815	2.3464	13392
2	5843	2.35184	13428
2	5860	2.35728	13464
2	5881	2.36272	13500
2	5895	2.36816	13536
2	5905	2.3736	13572
2	5915	2.37904	13608
2	6127	2.46368	13644
2	6137	2.46912	13680
2	6147	2.47456	13716
2	6157	2.48	13752
2	6167	2.48544	13788
2	6177	2.49088	13824
2	6187	2.49632	13860
2	6225	2.50176	13896
2	6249	2.5072	13932
2	6263	2.51264	13968
2	6277	2.51808	14004
2	6287	2.52352	14040
2	6297	2.52896	14076
2	6307	2.5344	14112
2	6317	2.53984	14148
2	6327	2.54528	14184
2	6353	2.55072	14220
2	6366	2.55616	14256
2	6380	2.5616	14292
2	6390	2.56704	14328
2	6400	2.57248	14364
2	6410	2.57792	14400
3	1116	1.12368	36
3	1126	1.12912	72
3	1136	1.13456	108
3	1146	1.14	144
3	1156	1.14544	180
3	1178	1.15088	216
3	1188	1.15632	252
3	1198	1.16176	288
3	1208	1.1672	324
3	1218	1.17264	360
3	1228	1.17808	396
3	1238	1.18352	432
3	1248	1.18896	468
3	1258	1.1944	504
3	1268	1.19984	540
3	1302	1.20528	576
3	1312	1.21072	612
3	1322	1.21616	648
3	1332	1.2216	684
3	1342	1.22704	720
3	1352	1.23248	756
3	1362	1.23792	792
3	1372	1.24336	828
3	1382	1.2488	864
3	1404	1.25424	900
3	1414	1.25968	936
3	1424	1.26512	972
3	1434	1.27056	1008
3	1444	1.276	1044
3	1454	1.28144	1080
3	1464	1.28688	1116
3	1474	1.29232	1152
3	1484	1.29776	1188
3	1518	1.3032	1224
3	1528	1.30864	1260
3	1538	1.31408	1296
3	1548	1.31952	1332
3	1558	1.32496	1368
3	1568	1.3304	1404
3	1578	1.33584	1440
3	1588	1.34128	1476
3	1598	1.34672	1512
3	1636	1.35216	1548
3	1663	1.3576	1584
3	1694	1.36304	1620
3	1806	1.36848	1656
3	1820	1.37392	1692
3	1826	1.37672	1728
3	1836	1.37936	1764
3	1842	1.38216	1800
3	1852	1.3848	1836
3	1858	1.3876	1872
3	1868	1.39024	1908
3	1874	1.39304	1944
3	1884	1.39568	1980
3	1890	1.39848	2016
3	1924	1.40112	2052
3	1930	1.40392	2088
3	1940	1.40656	2124
3	1946	1.40936	2160
3	1956	1.412	2196
3	1962	1.4148	2232
3	1972	1.41744	2268
3	1978	1.42024	2304
3	1988	1.42288	2340
3	1994	1.42568	2376
3	2004	1.42832	2412
3	2010	1.43112	2448
3	2020	1.43376	2484
3	2026	1.43656	2520
3	2036	1.4392	2556
3	2042	1.442	2592
3	2052	1.44464	2628
3	2058	1.44744	2664
3	2080	1.45008	2700
3	2086	1.45288	2736
3	2096	1.45552	2772
3	2102	1.45832	2808
3	2112	1.46096	2844
3	2118	1.46376	2880
3	2128	1.4664	2916
3	2134	1.4692	2952
3	2144	1.47184	2988
3	2150	1.47464	3024
3	2160	1.47728	3060
3	2166	1.48008	3096
3	2176	1.48272	3132
3	2182	1.48552	3168
3	2192	1.48816	3204
3	2198	1.49096	3240
3	2208	1.4936	3276
3	2214	1.4964	3312
3	2224	1.49904	3348
3	2254	1.50184	3384
3	2264	1.50448	3420
3	2270	1.50728	3456
3	2280	1.50992	3492
3	2286	1.51272	3528
3	2296	1.51536	3564
3	2302	1.51816	3600
3	2312	1.5208	3636
3	2318	1.5236	3672
3	2328	1.52624	3708
3	2334	1.52904	3744
3	2344	1.53168	3780
3	2350	1.53448	3816
3	2360	1.53712	3852
3	2366	1.53992	3888
3	2376	1.54256	3924
3	2382	1.54536	3960
3	2392	1.548	3996
3	2422	1.5508	4032
3	2428	1.55344	4068
3	2448	1.55624	4104
3	2454	1.55888	4140
3	2471	1.56168	4176
3	2481	1.56432	4212
3	2491	1.56712	4248
3	2501	1.56976	4284
3	2511	1.57256	4320
3	2521	1.5752	4356
3	2531	1.578	4392
3	2541	1.58064	4428
3	2547	1.58344	4464
3	2557	1.58608	4500
3	2563	1.58888	4536
3	2573	1.59152	4572
3	2579	1.59432	4608
3	2589	1.59696	4644
3	2595	1.59976	4680
3	2629	1.6024	4716
3	2635	1.6052	4752
3	2645	1.60784	4788
3	2651	1.61064	4824
3	2661	1.61328	4860
3	2667	1.61608	4896
3	2681	1.61872	4932
3	2695	1.62416	4968
3	2709	1.6296	5004
3	2723	1.63504	5040
3	2737	1.64048	5076
3	2751	1.64592	5112
3	2777	1.65136	5148
3	2791	1.6568	5184
3	2809	1.66224	5220
3	2823	1.66768	5256
3	2841	1.67312	5292
3	2859	1.67856	5328
3	2877	1.684	5364
3	2895	1.68944	5400
3	2913	1.69488	5436
3	2955	1.70032	5472
3	2973	1.70576	5508
3	2994	1.7112	5544
3	3122	1.71664	5580
3	3140	1.72208	5616
3	3158	1.72752	5652
3	3180	1.73296	5688
3	3198	1.7384	5724
3	3216	1.74384	5760
3	3234	1.74928	5796
3	3264	1.75472	5832
3	3282	1.76016	5868
3	3300	1.7656	5904
3	3314	1.77104	5940
3	3320	1.77144	5976
3	3334	1.77648	6012
3	3340	1.77688	6048
3	3354	1.78192	6084
3	3360	1.78232	6120
3	3374	1.78736	6156
3	3380	1.78776	6192
3	3394	1.7928	6228
3	3400	1.7932	6264
3	3414	1.79824	6300
3	3420	1.79864	6336
3	3464	1.80368	6372
3	3470	1.80408	6408
3	3498	1.80912	6444
3	3504	1.80952	6480
3	3572	1.81456	6516
3	3578	1.81496	6552
3	3596	1.82	6588
3	3602	1.8204	6624
3	3608	1.82048	6660
3	3618	1.82544	6696
3	3628	1.82584	6732
3	3634	1.82592	6768
3	3644	1.83088	6804
3	3654	1.83128	6840
3	3660	1.83136	6876
3	3670	1.83632	6912
3	3680	1.83672	6948
3	3686	1.8368	6984
3	3696	1.84176	7020
3	3706	1.84216	7056
3	3712	1.84224	7092
3	3722	1.8472	7128
3	3732	1.8476	7164
3	3738	1.84768	7200
3	3762	1.85264	7236
3	3772	1.85304	7272
3	3778	1.85312	7308
3	3791	1.85808	7344
3	3797	1.85848	7380
3	3803	1.85856	7416
3	3817	1.86352	7452
3	3823	1.86392	7488
3	3829	1.864	7524
3	3843	1.86896	7560
3	3849	1.86936	7596
3	3855	1.86944	7632
3	3869	1.8744	7668
3	3875	1.8748	7704
3	3881	1.87488	7740
3	3895	1.87984	7776
3	3904	1.88024	7812
3	3911	1.88032	7848
3	3921	1.88528	7884
3	3931	1.88568	7920
3	3937	1.88576	7956
3	3951	1.89072	7992
3	3957	1.89112	8028
3	3963	1.8912	8064
3	3977	1.89616	8100
3	3983	1.89656	8136
3	3989	1.89664	8172
3	4027	1.9016	8208
3	4033	1.902	8244
3	4039	1.90208	8280
3	4053	1.90704	8316
3	4059	1.90744	8352
3	4065	1.90752	8388
3	4079	1.91248	8424
3	4085	1.91288	8460
3	4091	1.91296	8496
3	4105	1.91792	8532
3	4111	1.91832	8568
3	4117	1.9184	8604
3	4131	1.92336	8640
3	4140	1.92376	8676
3	4147	1.92384	8712
3	4157	1.9288	8748
3	4167	1.9292	8784
3	4173	1.92928	8820
3	4183	1.93424	8856
3	4193	1.93464	8892
3	4199	1.93472	8928
3	4209	1.93968	8964
3	4219	1.94008	9000
3	4225	1.94016	9036
3	4235	1.94512	9072
3	4245	1.94552	9108
3	4251	1.9456	9144
3	4273	1.95056	9180
3	4283	1.95096	9216
3	4289	1.95104	9252
3	4299	1.956	9288
3	4309	1.9564	9324
3	4315	1.95648	9360
3	4325	1.96144	9396
3	4335	1.96184	9432
3	4341	1.96192	9468
3	4355	1.96688	9504
3	4369	1.96728	9540
3	4387	1.97232	9576
3	4393	1.97272	9612
3	4411	1.97776	9648
3	4417	1.97816	9684
3	4435	1.9832	9720
3	4441	1.9836	9756
3	4459	1.98864	9792
3	4465	1.98904	9828
3	4483	1.99408	9864
3	4489	1.99448	9900
3	4507	1.99952	9936
3	4513	1.99992	9972
3	4555	2.00496	10008
3	4561	2.00536	10044
3	4579	2.0104	10080
3	4589	2.0108	10116
3	4607	2.01584	10152
3	4613	2.01624	10188
3	4631	2.02128	10224
3	4637	2.02168	10260
3	4655	2.02672	10296
3	4661	2.02712	10332
3	4679	2.03216	10368
3	4685	2.03256	10404
3	4703	2.0376	10440
3	4709	2.038	10476
3	4727	2.04304	10512
3	4733	2.04344	10548
3	4751	2.04848	10584
3	4757	2.04888	10620
3	4793	2.05392	10656
3	4803	2.05432	10692
3	4828	2.05936	10728
3	4834	2.05976	10764
3	4852	2.0648	10800
3	4858	2.0652	10836
3	4883	2.07024	10872
3	4905	2.07568	10908
3	4925	2.08112	10944
3	4943	2.08656	10980
3	5063	2.092	11016
3	5077	2.09744	11052
3	5115	2.10288	11088
3	5121	2.10704	11124
3	5127	2.10832	11160
3	5137	2.11248	11196
3	5143	2.11376	11232
3	5153	2.11792	11268
3	5159	2.1192	11304
3	5169	2.12336	11340
3	5175	2.12464	11376
3	5185	2.1288	11412
3	5191	2.13008	11448
3	5201	2.13424	11484
3	5207	2.13552	11520
3	5217	2.13968	11556
3	5223	2.14096	11592
3	5233	2.14512	11628
3	5239	2.1464	11664
3	5261	2.15056	11700
3	5267	2.15184	11736
3	5277	2.156	11772
3	5283	2.15728	11808
3	5293	2.16144	11844
3	5299	2.16272	11880
3	5309	2.16688	11916
3	5315	2.16816	11952
3	5325	2.17232	11988
3	5331	2.1736	12024
3	5341	2.17776	12060
3	5347	2.17904	12096
3	5357	2.1832	12132
3	5363	2.18448	12168
3	5373	2.18864	12204
3	5379	2.18992	12240
3	5389	2.19408	12276
3	5395	2.19536	12312
3	5405	2.19952	12348
3	5437	2.2008	12384
3	5447	2.20496	12420
3	5453	2.20624	12456
3	5470	2.2104	12492
3	5501	2.21584	12528
3	5516	2.22128	12564
3	5530	2.22672	12600
3	5547	2.23216	12636
3	5568	2.2376	12672
3	5578	2.24304	12708
3	5588	2.24848	12744
3	5610	2.25392	12780
3	5620	2.25936	12816
3	5630	2.2648	12852
3	5640	2.27024	12888
3	5650	2.27568	12924
3	5660	2.28112	12960
3	5670	2.28656	12996
3	5680	2.292	13032
3	5690	2.29744	13068
3	5728	2.30288	13104
3	5745	2.30832	13140
3	5755	2.31376	13176
3	5765	2.3192	13212
3	5775	2.32464	13248
3	5785	2.33008	13284
3	5795	2.33552	13320
3	5805	2.34096	13356
3	5815	2.3464	13392
3	5843	2.35184	13428
3	5860	2.35728	13464
3	5881	2.36272	13500
3	5895	2.36816	13536
3	5905	2.3736	13572
3	5915	2.37904	13608
3	6127	2.46368	13644
3	6137	2.46912	13680
3	6147	2.47456	13716
3	6157	2.48	13752
3	6167	2.48544	13788
3	6177	2.49088	13824
3	6187	2.49632	13860
3	6225	2.50176	13896
3	6249	2.5072	13932
3	6263	2.51264	13968
3	6277	2.51808	14004
3	6287	2.52352	14040
3	6297	2.52896	14076
3	6307	2.5344	14112
3	6317	2.53984	14148
3	6327	2.54528	14184
3	6353	2.55072	14220
3	6366	2.55616	14256
3	6380	2.5616	14292
3	6390	2.56704	14328
3	6400	2.57248	14364
3	6410	2.57792	14400

