version 2
run B-0-20190918-23:54:05-6431
attr configname B
attr datetime 20190918-23:54:05
attr experiment B
attr inifile SimV2.ini
attr iterationvars ""
attr iterationvarsf ""
attr measurement ""
attr network NetworkTormV2
attr processid 6431
attr repetition 0
attr replication #0
attr resultdir results
attr runnumber 0
attr seedset 0
param **.mobility.traceFile "\"paths/B.movements\""
param **.numNodes 4
param **.wirelessIfc.wirelessRange 40m
param **.bluetoothIfc.wirelessRange 40m
param **application.destinationAddr "\"Wf:00:00:00:00:02\""
param **application.destinationBTAddr "\"Bt:00:00:00:00:02\""
param **application.nodesThatGen true
param **application.nodesGenMsg "\"0,1\""
param **application.startMultipleMsg true
param **application.numMultipleMsg 100
param **application.hopsListSize 50
param **.numNodes 2
param **.application.usedRNG 1
param **.application.dataGenerationInterval 1ms
param **.application.dataSizeInBytes 10
param **.application.ttl 999999s
param **application.destinationAddr "\"Wf:00:00:00:00:02\""
param **application.destinationBTAddr "\"Bt:00:00:00:00:02\""
param **application.nodesThatGen true
param **application.nodesGenMsg "\"0\""
param **application.startMultipleMsg true
param **application.numMultipleMsg 100
param **application.hopsListSize 50
param **.application.endGeneratingMsg 999999s
param **.routingLayer "\"RoutingLayer\""
param **.routing.maximumCacheSize 5000byte
param **.routing.maximumHopCount 25
param **.routing.useTTL false
param **.routing.waitBFsend 0.5
param **.routing.max_age 999999s
param **.neighboring.antiEntropyInterval 500ms
param **.neighboring.maximumRandomBackoffDuration 1s
param **.neighboring.delayPerDataMsg 0.1
param **neighboring.usedRNG 2
param **.neighboring.GWAddr "\"Wf:00:00:00:00:02\""
param **.neighboring.sendWifiFirst true
param **.neighboring.maxLengthGraph 20
param **.neighboring.max_age 999999s
param **.neighboring.max_absent_time 1s
param **.wirelessIfc.wirelessRange 15m
param **.wirelessIfc.neighbourScanInterval 50ms
param **.wirelessIfc.bandwidthBitRate 100000bps
param **.wirelessIfc.wirelessHeaderSize 32byte
param **.wirelessIfc.minSSI -90
param **.wirelessIfc.limitQueueTime 400ms
param **.bluetoothIfc.wirelessRange 15m
param **.bluetoothIfc.neighbourScanInterval 100ms
param **.bluetoothIfc.bandwidthBitRate 100000bps
param **.bluetoothIfc.wirelessHeaderSize 16byte
param **.bluetoothIfc.minSSI -90
param **.mobilityType "\"BonnMotionMobility\""
param **.mobility.traceFile "\"paths/Moves2.movements\""
param **.mobility.is3D false
param **.mobility.nodeId -1

vector 0 NetworkTormV2 neighbourhoodSize:vector ETV
attr source neighbourhoodSize
vector 1 NetworkTormV2 deliveryRatio:vector ETV
attr source sum(totalDataBytesReceived)/sum(totalDataBytesReceivableByAllNodes)
vector 2 NetworkTormV2 dataBytesReceivedSum:vector ETV
attr source sum(dataBytesReceived)
vector 3 NetworkTormV2 totalBytesReceivedSum:vector ETV
attr source sum(totalBytesReceived)
0	13	0.05	2
0	14	0.05	2
0	15	0.05	2
0	16	0.05	2
0	26	0.1	2
0	28	0.1	2
0	29	0.1	2
0	30	0.1	2
0	31	0.1	2
0	32	0.1	2
0	33	0.1	2
0	34	0.1	2
0	249	0.15	2
0	250	0.15	2
0	251	0.15	2
0	252	0.15	2
0	461	0.2	2
0	462	0.2	2
0	463	0.2	2
0	464	0.2	2
0	465	0.2	2
0	466	0.2	2
0	467	0.2	2
0	468	0.2	2
0	485	0.25	2
0	486	0.25	2
0	487	0.25	2
0	488	0.25	2
0	497	0.3	2
0	498	0.3	2
0	499	0.3	2
0	500	0.3	2
0	501	0.3	2
0	502	0.3	2
0	503	0.3	2
0	504	0.3	2
0	521	0.35	2
0	522	0.35	2
0	523	0.35	2
0	524	0.35	2
0	533	0.4	2
0	534	0.4	2
0	535	0.4	2
0	536	0.4	2
0	537	0.4	2
0	538	0.4	2
0	539	0.4	2
0	540	0.4	2
0	557	0.45	2
0	558	0.45	2
0	559	0.45	2
0	560	0.45	2
0	569	0.5	2
0	570	0.5	2
0	571	0.5	2
0	572	0.5	2
0	573	0.5	2
0	574	0.5	2
0	575	0.5	2
0	576	0.5	2
0	593	0.55	2
0	594	0.55	2
0	595	0.55	2
0	596	0.55	2
0	605	0.6	2
0	606	0.6	2
0	607	0.6	2
0	608	0.6	2
0	609	0.6	2
0	610	0.6	2
0	611	0.6	2
0	612	0.6	2
0	629	0.65	2
0	630	0.65	2
0	631	0.65	2
0	632	0.65	2
0	641	0.7	2
0	642	0.7	2
0	643	0.7	2
0	644	0.7	2
0	645	0.7	2
0	646	0.7	2
0	647	0.7	2
0	648	0.7	2
0	665	0.75	2
0	666	0.75	2
0	667	0.75	2
0	668	0.75	2
0	677	0.8	2
0	678	0.8	2
0	679	0.8	2
0	680	0.8	2
0	681	0.8	2
0	682	0.8	2
0	683	0.8	2
0	684	0.8	2
0	701	0.85	2
0	702	0.85	2
0	703	0.85	2
0	704	0.85	2
0	713	0.9	2
0	714	0.9	2
0	715	0.9	2
0	716	0.9	2
0	717	0.9	2
0	718	0.9	2
0	719	0.9	2
0	720	0.9	2
0	737	0.95	2
0	738	0.95	2
0	739	0.95	2
0	740	0.95	2
0	749	1	2
0	750	1	2
0	751	1	2
0	752	1	2
0	753	1	2
0	754	1	2
0	755	1	2
0	756	1	2
0	773	1.05	2
0	774	1.05	2
0	775	1.05	2
0	776	1.05	2
0	785	1.1	2
0	786	1.1	2
0	787	1.1	2
0	788	1.1	2
0	789	1.1	2
0	790	1.1	2
0	791	1.1	2
0	792	1.1	2
0	853	1.15	2
0	854	1.15	2
0	855	1.15	2
0	856	1.15	2
0	865	1.2	2
0	866	1.2	2
0	867	1.2	2
0	868	1.2	2
0	869	1.2	2
0	870	1.2	2
0	871	1.2	2
0	872	1.2	2
0	889	1.25	2
0	890	1.25	2
0	891	1.25	2
0	892	1.25	2
0	901	1.3	2
0	902	1.3	2
0	903	1.3	2
0	904	1.3	2
0	905	1.3	2
0	906	1.3	2
0	907	1.3	2
0	908	1.3	2
0	925	1.35	2
0	926	1.35	2
0	927	1.35	2
0	928	1.35	2
0	937	1.4	2
0	938	1.4	2
0	939	1.4	2
0	940	1.4	2
0	941	1.4	2
0	942	1.4	2
0	943	1.4	2
0	944	1.4	2
0	961	1.45	2
0	962	1.45	2
0	963	1.45	2
0	964	1.45	2
0	973	1.5	2
0	974	1.5	2
0	975	1.5	2
0	976	1.5	2
0	977	1.5	2
0	978	1.5	2
0	979	1.5	2
0	980	1.5	2
0	997	1.55	2
0	998	1.55	2
0	999	1.55	2
0	1000	1.55	2
0	1009	1.6	2
0	1010	1.6	2
0	1011	1.6	2
0	1012	1.6	2
0	1013	1.6	2
0	1014	1.6	2
0	1015	1.6	2
0	1016	1.6	2
0	1033	1.65	2
0	1034	1.65	2
0	1035	1.65	2
0	1036	1.65	2
0	1068	1.7	2
0	1069	1.7	2
0	1070	1.7	2
0	1071	1.7	2
0	1072	1.7	2
0	1073	1.7	2
0	1074	1.7	2
0	1075	1.7	2
0	1092	1.75	2
0	1093	1.75	2
0	1094	1.75	2
0	1095	1.75	2
0	1104	1.8	2
0	1105	1.8	2
0	1106	1.8	2
0	1107	1.8	2
0	1108	1.8	2
0	1109	1.8	2
0	1110	1.8	2
0	1111	1.8	2
0	1365	1.85	2
0	1366	1.85	2
0	1367	1.85	2
0	1368	1.85	2
0	1392	1.9	2
0	1393	1.9	2
0	1394	1.9	2
0	1395	1.9	2
0	1396	1.9	2
0	1397	1.9	2
0	1398	1.9	2
0	1399	1.9	2
0	1447	1.95	2
0	1448	1.95	2
0	1449	1.95	2
0	1450	1.95	2
0	1478	2	2
0	1479	2	2
0	1480	2	2
0	1481	2	2
0	1482	2	2
0	1483	2	2
0	1484	2	2
0	1485	2	2
0	1524	2.05	2
0	1525	2.05	2
0	1526	2.05	2
0	1527	2.05	2
0	1554	2.1	2
0	1555	2.1	2
0	1556	2.1	2
0	1557	2.1	2
0	1558	2.1	2
0	1559	2.1	2
0	1560	2.1	2
0	1561	2.1	2
0	1597	2.15	2
0	1598	2.15	2
0	1599	2.15	2
0	1600	2.15	2
0	1618	2.2	2
0	1619	2.2	2
0	1620	2.2	2
0	1621	2.2	2
0	1622	2.2	2
0	1623	2.2	2
0	1624	2.2	2
0	1625	2.2	2
0	1698	2.25	2
0	1699	2.25	2
0	1700	2.25	2
0	1701	2.25	2
0	1723	2.3	2
0	1724	2.3	2
0	1725	2.3	2
0	1726	2.3	2
0	1727	2.3	2
0	1728	2.3	2
0	1729	2.3	2
0	1730	2.3	2
0	1768	2.35	2
0	1769	2.35	2
0	1770	2.35	2
0	1771	2.35	2
0	1802	2.4	2
0	1803	2.4	2
0	1804	2.4	2
0	1805	2.4	2
0	1806	2.4	2
0	1807	2.4	2
0	1808	2.4	2
0	1809	2.4	2
0	1844	2.45	2
0	1845	2.45	2
0	1846	2.45	2
0	1847	2.45	2
0	1875	2.5	2
0	1876	2.5	2
0	1877	2.5	2
0	1878	2.5	2
0	1879	2.5	2
0	1880	2.5	2
0	1881	2.5	2
0	1882	2.5	2
0	1915	2.55	2
0	1916	2.55	2
0	1917	2.55	2
0	1918	2.55	2
0	1945	2.6	2
0	1946	2.6	2
0	1947	2.6	2
0	1948	2.6	2
0	1949	2.6	2
0	1950	2.6	2
0	1951	2.6	2
0	1952	2.6	2
0	1997	2.65	2
0	1998	2.65	2
0	1999	2.65	2
0	2000	2.65	2
0	2030	2.7	2
0	2031	2.7	2
0	2032	2.7	2
0	2033	2.7	2
0	2034	2.7	2
0	2035	2.7	2
0	2036	2.7	2
0	2037	2.7	2
0	2090	2.75	2
0	2091	2.75	2
0	2092	2.75	2
0	2093	2.75	2
0	2127	2.8	2
0	2128	2.8	2
0	2129	2.8	2
0	2130	2.8	2
0	2131	2.8	2
0	2132	2.8	2
0	2133	2.8	2
0	2134	2.8	2
0	2178	2.85	2
0	2179	2.85	2
0	2180	2.85	2
0	2181	2.85	2
0	2212	2.9	2
0	2213	2.9	2
0	2214	2.9	2
0	2215	2.9	2
0	2216	2.9	2
0	2217	2.9	2
0	2218	2.9	2
0	2219	2.9	2
0	2263	2.95	2
0	2264	2.95	2
0	2265	2.95	2
0	2266	2.95	2
0	2297	3	2
0	2298	3	2
0	2299	3	2
0	2300	3	2
0	2301	3	2
0	2302	3	2
0	2303	3	2
0	2304	3	2
0	2352	3.05	2
0	2353	3.05	2
0	2354	3.05	2
0	2355	3.05	2
0	2391	3.1	2
0	2392	3.1	2
0	2393	3.1	2
0	2394	3.1	2
0	2395	3.1	2
0	2396	3.1	2
0	2397	3.1	2
0	2398	3.1	2
0	2446	3.15	2
0	2447	3.15	2
0	2448	3.15	2
0	2449	3.15	2
0	2482	3.2	2
0	2483	3.2	2
0	2484	3.2	2
0	2485	3.2	2
0	2486	3.2	2
0	2487	3.2	2
0	2488	3.2	2
0	2489	3.2	2
0	2512	3.25	2
0	2513	3.25	2
0	2514	3.25	2
0	2515	3.25	2
0	2527	3.3	2
0	2528	3.3	2
0	2529	3.3	2
0	2530	3.3	2
0	2531	3.3	2
0	2532	3.3	2
0	2533	3.3	2
0	2534	3.3	2
0	2551	3.35	2
0	2552	3.35	2
0	2553	3.35	2
0	2554	3.35	2
0	2563	3.4	2
0	2564	3.4	2
0	2565	3.4	2
0	2566	3.4	2
0	2567	3.4	2
0	2568	3.4	2
0	2569	3.4	2
0	2570	3.4	2
0	2600	3.45	2
0	2601	3.45	2
0	2602	3.45	2
0	2603	3.45	2
0	2612	3.5	2
0	2613	3.5	2
0	2614	3.5	2
0	2615	3.5	2
0	2616	3.5	2
0	2617	3.5	2
0	2618	3.5	2
0	2619	3.5	2
0	2636	3.55	2
0	2637	3.55	2
0	2638	3.55	2
0	2639	3.55	2
0	2658	3.6	2
0	2659	3.6	2
0	2660	3.6	2
0	2661	3.6	2
0	2662	3.6	2
0	2663	3.6	2
0	2664	3.6	2
0	2665	3.6	2
0	2682	3.65	2
0	2683	3.65	2
0	2684	3.65	2
0	2685	3.65	2
0	2694	3.7	2
0	2695	3.7	2
0	2696	3.7	2
0	2697	3.7	2
0	2698	3.7	2
0	2699	3.7	2
0	2700	3.7	2
0	2701	3.7	2
0	2718	3.75	2
0	2719	3.75	2
0	2720	3.75	2
0	2721	3.75	2
0	2730	3.8	2
0	2731	3.8	2
0	2732	3.8	2
0	2733	3.8	2
0	2734	3.8	2
0	2735	3.8	2
0	2736	3.8	2
0	2737	3.8	2
0	2767	3.85	2
0	2768	3.85	2
0	2769	3.85	2
0	2770	3.85	2
0	2779	3.9	2
0	2780	3.9	2
0	2781	3.9	2
0	2782	3.9	2
0	2783	3.9	2
0	2784	3.9	2
0	2785	3.9	2
0	2786	3.9	2
0	2803	3.95	2
0	2804	3.95	2
0	2805	3.95	2
0	2806	3.95	2
0	2964	4	2
0	2965	4	2
0	2966	4	2
0	2967	4	2
0	2968	4	2
0	2969	4	2
0	2970	4	2
0	2971	4	2
0	3024	4.05	2
0	3025	4.05	2
0	3026	4.05	2
0	3027	4.05	2
0	3052	4.1	2
0	3053	4.1	2
0	3054	4.1	2
0	3055	4.1	2
0	3056	4.1	2
0	3057	4.1	2
0	3058	4.1	2
0	3059	4.1	2
0	3095	4.15	2
0	3096	4.15	2
0	3097	4.15	2
0	3098	4.15	2
0	3120	4.2	2
0	3121	4.2	2
0	3122	4.2	2
0	3123	4.2	2
0	3124	4.2	2
0	3125	4.2	2
0	3126	4.2	2
0	3127	4.2	2
0	3162	4.25	2
0	3163	4.25	2
0	3164	4.25	2
0	3165	4.25	2
0	3196	4.3	2
0	3197	4.3	2
0	3198	4.3	2
0	3199	4.3	2
0	3200	4.3	2
0	3201	4.3	2
0	3202	4.3	2
0	3203	4.3	2
0	3279	4.35	2
0	3280	4.35	2
0	3281	4.35	2
0	3282	4.35	2
0	3335	4.4	2
0	3336	4.4	2
0	3337	4.4	2
0	3338	4.4	2
0	3339	4.4	2
0	3340	4.4	2
0	3341	4.4	2
0	3342	4.4	2
0	3395	4.45	2
0	3396	4.45	2
0	3397	4.45	2
0	3398	4.45	2
0	3442	4.5	2
0	3443	4.5	2
0	3444	4.5	2
0	3445	4.5	2
0	3446	4.5	2
0	3447	4.5	2
0	3448	4.5	2
0	3449	4.5	2
0	3488	4.55	2
0	3489	4.55	2
0	3490	4.55	2
0	3491	4.55	2
0	3518	4.6	2
0	3519	4.6	2
0	3520	4.6	2
0	3521	4.6	2
0	3522	4.6	2
0	3523	4.6	2
0	3524	4.6	2
0	3525	4.6	2
0	3555	4.65	2
0	3556	4.65	2
0	3557	4.65	2
0	3558	4.65	2
0	3582	4.7	2
0	3583	4.7	2
0	3584	4.7	2
0	3585	4.7	2
0	3586	4.7	2
0	3587	4.7	2
0	3588	4.7	2
0	3589	4.7	2
0	3621	4.75	2
0	3622	4.75	2
0	3623	4.75	2
0	3624	4.75	2
0	3642	4.8	2
0	3643	4.8	2
0	3644	4.8	2
0	3645	4.8	2
0	3646	4.8	2
0	3647	4.8	2
0	3648	4.8	2
0	3649	4.8	2
0	3666	4.85	2
0	3667	4.85	2
0	3668	4.85	2
0	3669	4.85	2
0	3684	4.9	2
0	3685	4.9	2
0	3686	4.9	2
0	3687	4.9	2
0	3688	4.9	2
0	3689	4.9	2
0	3690	4.9	2
0	3691	4.9	2
0	3721	4.95	2
0	3722	4.95	2
0	3723	4.95	2
0	3724	4.95	2
0	3733	5	2
0	3734	5	2
0	3735	5	2
0	3736	5	2
0	3737	5	2
0	3738	5	2
0	3739	5	2
0	3740	5	2
0	3757	5.05	2
0	3758	5.05	2
0	3759	5.05	2
0	3760	5.05	2
0	3858	5.1	2
0	3859	5.1	2
0	3860	5.1	2
0	3861	5.1	2
0	3862	5.1	2
0	3863	5.1	2
0	3864	5.1	2
0	3865	5.1	2
0	3909	5.15	2
0	3910	5.15	2
0	3911	5.15	2
0	3912	5.15	2
0	3949	5.2	2
0	3950	5.2	2
0	3951	5.2	2
0	3952	5.2	2
0	3953	5.2	2
0	3954	5.2	2
0	3955	5.2	2
0	3956	5.2	2
0	4010	5.25	2
0	4011	5.25	2
0	4012	5.25	2
0	4013	5.25	2
0	4050	5.3	2
0	4051	5.3	2
0	4052	5.3	2
0	4053	5.3	2
0	4054	5.3	2
0	4055	5.3	2
0	4056	5.3	2
0	4057	5.3	2
0	4095	5.35	2
0	4096	5.35	2
0	4097	5.35	2
0	4098	5.35	2
0	4117	5.4	2
0	4118	5.4	2
0	4119	5.4	2
0	4120	5.4	2
0	4121	5.4	2
0	4122	5.4	2
0	4123	5.4	2
0	4124	5.4	2
0	4153	5.45	2
0	4154	5.45	2
0	4155	5.45	2
0	4156	5.45	2
0	4191	5.5	2
0	4192	5.5	2
0	4193	5.5	2
0	4194	5.5	2
0	4195	5.5	2
0	4196	5.5	2
0	4197	5.5	2
0	4198	5.5	2
0	4215	5.55	2
0	4216	5.55	2
0	4217	5.55	2
0	4218	5.55	2
0	4227	5.6	2
0	4228	5.6	2
0	4229	5.6	2
0	4230	5.6	2
0	4231	5.6	2
0	4232	5.6	2
0	4233	5.6	2
0	4234	5.6	2
0	4254	5.65	2
0	4255	5.65	2
0	4256	5.65	2
0	4257	5.65	2
0	4266	5.7	2
0	4267	5.7	2
0	4268	5.7	2
0	4269	5.7	2
0	4270	5.7	2
0	4271	5.7	2
0	4272	5.7	2
0	4273	5.7	2
0	4290	5.75	2
0	4291	5.75	2
0	4292	5.75	2
0	4293	5.75	2
0	4302	5.8	2
0	4303	5.8	2
0	4304	5.8	2
0	4305	5.8	2
0	4306	5.8	2
0	4307	5.8	2
0	4308	5.8	2
0	4309	5.8	2
0	4326	5.85	2
0	4327	5.85	2
0	4328	5.85	2
0	4329	5.85	2
0	4338	5.9	2
0	4339	5.9	2
0	4340	5.9	2
0	4341	5.9	2
0	4342	5.9	2
0	4343	5.9	2
0	4344	5.9	2
0	4345	5.9	2
0	4365	5.95	2
0	4366	5.95	2
0	4367	5.95	2
0	4368	5.95	2
0	4387	6	2
0	4388	6	2
0	4389	6	2
0	4390	6	2
0	4391	6	2
0	4392	6	2
0	4393	6	2
0	4394	6	2
0	4411	6.05	2
0	4412	6.05	2
0	4413	6.05	2
0	4414	6.05	2
0	4433	6.1	2
0	4434	6.1	2
0	4435	6.1	2
0	4436	6.1	2
0	4437	6.1	2
0	4438	6.1	2
0	4439	6.1	2
0	4440	6.1	2
0	4470	6.15	2
0	4471	6.15	2
0	4472	6.15	2
0	4473	6.15	2
0	4482	6.2	2
0	4483	6.2	2
0	4484	6.2	2
0	4485	6.2	2
0	4486	6.2	2
0	4487	6.2	2
0	4488	6.2	2
0	4489	6.2	2
0	4506	6.25	2
0	4507	6.25	2
0	4508	6.25	2
0	4509	6.25	2
0	4518	6.3	2
0	4519	6.3	2
0	4520	6.3	2
0	4521	6.3	2
0	4522	6.3	2
0	4523	6.3	2
0	4524	6.3	2
0	4525	6.3	2
0	4542	6.35	2
0	4543	6.35	2
0	4544	6.35	2
0	4545	6.35	2
0	4554	6.4	2
0	4555	6.4	2
0	4556	6.4	2
0	4557	6.4	2
0	4558	6.4	2
0	4559	6.4	2
0	4560	6.4	2
0	4561	6.4	2
0	4578	6.45	2
0	4579	6.45	2
0	4580	6.45	2
0	4581	6.45	2
0	4818	6.5	2
0	4819	6.5	2
0	4820	6.5	2
0	4821	6.5	2
0	4822	6.5	2
0	4823	6.5	2
0	4824	6.5	2
0	4825	6.5	2
0	4866	6.55	2
0	4867	6.55	2
0	4868	6.55	2
0	4869	6.55	2
0	4890	6.6	2
0	4891	6.6	2
0	4892	6.6	2
0	4893	6.6	2
0	4894	6.6	2
0	4895	6.6	2
0	4896	6.6	2
0	4897	6.6	2
0	4954	6.65	2
0	4955	6.65	2
0	4956	6.65	2
0	4957	6.65	2
0	4994	6.7	2
0	4995	6.7	2
0	4996	6.7	2
0	4997	6.7	2
0	4998	6.7	2
0	4999	6.7	2
0	5000	6.7	2
0	5001	6.7	2
0	5036	6.75	2
0	5037	6.75	2
0	5038	6.75	2
0	5039	6.75	2
0	5079	6.8	2
0	5080	6.8	2
0	5081	6.8	2
0	5082	6.8	2
0	5083	6.8	2
0	5084	6.8	2
0	5085	6.8	2
0	5086	6.8	2
0	5121	6.85	2
0	5122	6.85	2
0	5123	6.85	2
0	5124	6.85	2
0	5158	6.9	2
0	5159	6.9	2
0	5160	6.9	2
0	5161	6.9	2
0	5162	6.9	2
0	5163	6.9	2
0	5164	6.9	2
0	5165	6.9	2
0	5212	6.95	2
0	5213	6.95	2
0	5214	6.95	2
0	5215	6.95	2
0	5237	7	2
0	5238	7	2
0	5239	7	2
0	5240	7	2
0	5241	7	2
0	5242	7	2
0	5243	7	2
0	5244	7	2
0	5297	7.05	2
0	5298	7.05	2
0	5299	7.05	2
0	5300	7.05	2
0	5352	7.1	2
0	5353	7.1	2
0	5354	7.1	2
0	5355	7.1	2
0	5356	7.1	2
0	5357	7.1	2
0	5358	7.1	2
0	5359	7.1	2
0	5389	7.15	2
0	5390	7.15	2
0	5391	7.15	2
0	5392	7.15	2
0	5428	7.2	2
0	5429	7.2	2
0	5430	7.2	2
0	5431	7.2	2
0	5432	7.2	2
0	5433	7.2	2
0	5434	7.2	2
0	5435	7.2	2
0	5496	7.25	2
0	5497	7.25	2
0	5498	7.25	2
0	5499	7.25	2
0	5539	7.3	2
0	5540	7.3	2
0	5541	7.3	2
0	5542	7.3	2
0	5543	7.3	2
0	5544	7.3	2
0	5545	7.3	2
0	5546	7.3	2
0	5581	7.35	2
0	5582	7.35	2
0	5583	7.35	2
0	5584	7.35	2
0	5603	7.4	2
0	5604	7.4	2
0	5605	7.4	2
0	5606	7.4	2
0	5607	7.4	2
0	5608	7.4	2
0	5609	7.4	2
0	5610	7.4	2
0	5646	7.45	2
0	5647	7.45	2
0	5648	7.45	2
0	5649	7.45	2
0	5679	7.5	2
0	5680	7.5	2
0	5681	7.5	2
0	5682	7.5	2
0	5683	7.5	2
0	5684	7.5	2
0	5685	7.5	2
0	5686	7.5	2
0	5734	7.55	2
0	5735	7.55	2
0	5736	7.55	2
0	5737	7.55	2
0	5762	7.6	2
0	5763	7.6	2
0	5764	7.6	2
0	5765	7.6	2
0	5766	7.6	2
0	5767	7.6	2
0	5768	7.6	2
0	5769	7.6	2
0	5817	7.65	2
0	5818	7.65	2
0	5819	7.65	2
0	5820	7.65	2
0	5863	7.7	2
0	5864	7.7	2
0	5865	7.7	2
0	5866	7.7	2
0	5867	7.7	2
0	5868	7.7	2
0	5869	7.7	2
0	5870	7.7	2
0	5914	7.75	2
0	5915	7.75	2
0	5916	7.75	2
0	5917	7.75	2
0	5957	7.8	2
0	5958	7.8	2
0	5959	7.8	2
0	5960	7.8	2
0	5961	7.8	2
0	5962	7.8	2
0	5963	7.8	2
0	5964	7.8	2
0	6011	7.85	2
0	6012	7.85	2
0	6013	7.85	2
0	6014	7.85	2
0	6034	7.9	2
0	6035	7.9	2
0	6036	7.9	2
0	6037	7.9	2
0	6038	7.9	2
0	6039	7.9	2
0	6040	7.9	2
0	6041	7.9	2
0	6058	7.95	2
0	6059	7.95	2
0	6060	7.95	2
0	6061	7.95	2
0	6070	8	2
0	6071	8	2
0	6072	8	2
0	6073	8	2
0	6074	8	2
0	6075	8	2
0	6076	8	2
0	6077	8	2
0	6094	8.05	2
0	6095	8.05	2
0	6096	8.05	2
0	6097	8.05	2
0	6109	8.1	2
0	6110	8.1	2
0	6111	8.1	2
0	6112	8.1	2
0	6113	8.1	2
0	6114	8.1	2
0	6115	8.1	2
0	6116	8.1	2
0	6133	8.15	2
0	6134	8.15	2
0	6135	8.15	2
0	6136	8.15	2
0	6148	8.2	2
0	6149	8.2	2
0	6150	8.2	2
0	6151	8.2	2
0	6152	8.2	2
0	6153	8.2	2
0	6154	8.2	2
0	6155	8.2	2
0	6172	8.25	2
0	6173	8.25	2
0	6174	8.25	2
0	6175	8.25	2
0	6184	8.3	2
0	6185	8.3	2
0	6186	8.3	2
0	6187	8.3	2
0	6188	8.3	2
0	6189	8.3	2
0	6190	8.3	2
0	6191	8.3	2
0	6208	8.35	2
0	6209	8.35	2
0	6210	8.35	2
0	6211	8.35	2
0	6220	8.4	2
0	6221	8.4	2
0	6222	8.4	2
0	6223	8.4	2
0	6224	8.4	2
0	6225	8.4	2
0	6226	8.4	2
0	6227	8.4	2
0	6244	8.45	2
0	6245	8.45	2
0	6246	8.45	2
0	6247	8.45	2
0	6256	8.5	2
0	6257	8.5	2
0	6258	8.5	2
0	6259	8.5	2
0	6260	8.5	2
0	6261	8.5	2
0	6262	8.5	2
0	6263	8.5	2
0	6280	8.55	2
0	6281	8.55	2
0	6282	8.55	2
0	6283	8.55	2
0	6292	8.6	2
0	6293	8.6	2
0	6294	8.6	2
0	6295	8.6	2
0	6296	8.6	2
0	6297	8.6	2
0	6298	8.6	2
0	6299	8.6	2
0	6342	8.65	2
0	6343	8.65	2
0	6344	8.65	2
0	6345	8.65	2
0	6354	8.7	2
0	6355	8.7	2
0	6356	8.7	2
0	6357	8.7	2
0	6358	8.7	2
0	6359	8.7	2
0	6360	8.7	2
0	6361	8.7	2
0	6378	8.75	2
0	6379	8.75	2
0	6380	8.75	2
0	6381	8.75	2
0	6396	8.8	2
0	6397	8.8	2
0	6398	8.8	2
0	6399	8.8	2
0	6400	8.8	2
0	6401	8.8	2
0	6402	8.8	2
0	6403	8.8	2
0	6420	8.85	2
0	6421	8.85	2
0	6422	8.85	2
0	6423	8.85	2
0	6432	8.9	2
0	6433	8.9	2
0	6434	8.9	2
0	6435	8.9	2
0	6436	8.9	2
0	6437	8.9	2
0	6438	8.9	2
0	6439	8.9	2
0	6456	8.95	2
0	6457	8.95	2
0	6458	8.95	2
0	6459	8.95	2
0	6468	9	2
0	6469	9	2
0	6470	9	2
0	6471	9	2
0	6472	9	2
0	6473	9	2
0	6474	9	2
0	6475	9	2
0	6492	9.05	2
0	6493	9.05	2
0	6494	9.05	2
0	6495	9.05	2
0	6504	9.1	2
0	6505	9.1	2
0	6506	9.1	2
0	6507	9.1	2
0	6508	9.1	2
0	6509	9.1	2
0	6510	9.1	2
0	6511	9.1	2
0	6528	9.15	2
0	6529	9.15	2
0	6530	9.15	2
0	6531	9.15	2
0	6540	9.2	2
0	6541	9.2	2
0	6542	9.2	2
0	6543	9.2	2
0	6544	9.2	2
0	6545	9.2	2
0	6546	9.2	2
0	6547	9.2	2
0	6577	9.25	2
0	6578	9.25	2
0	6579	9.25	2
0	6580	9.25	2
0	6589	9.3	2
0	6590	9.3	2
0	6591	9.3	2
0	6592	9.3	2
0	6593	9.3	2
0	6594	9.3	2
0	6595	9.3	2
0	6596	9.3	2
0	6616	9.35	2
0	6617	9.35	2
0	6618	9.35	2
0	6619	9.35	2
0	6631	9.4	2
0	6632	9.4	2
0	6633	9.4	2
0	6634	9.4	2
0	6635	9.4	2
0	6636	9.4	2
0	6637	9.4	2
0	6638	9.4	2
0	6655	9.45	2
0	6656	9.45	2
0	6657	9.45	2
0	6658	9.45	2
0	6810	9.5	2
0	6811	9.5	2
0	6812	9.5	2
0	6813	9.5	2
0	6814	9.5	2
0	6815	9.5	2
0	6816	9.5	2
0	6817	9.5	2
0	6862	9.55	2
0	6863	9.55	2
0	6864	9.55	2
0	6865	9.55	2
0	6889	9.6	2
0	6890	9.6	2
0	6891	9.6	2
0	6892	9.6	2
0	6893	9.6	2
0	6894	9.6	2
0	6895	9.6	2
0	6896	9.6	2
0	6941	9.65	2
0	6942	9.65	2
0	6943	9.65	2
0	6944	9.65	2
0	6975	9.7	2
0	6976	9.7	2
0	6977	9.7	2
0	6978	9.7	2
0	6979	9.7	2
0	6980	9.7	2
0	6981	9.7	2
0	6982	9.7	2
0	7011	9.75	2
0	7012	9.75	2
0	7013	9.75	2
0	7014	9.75	2
0	7042	9.8	2
0	7043	9.8	2
0	7044	9.8	2
0	7045	9.8	2
0	7046	9.8	2
0	7047	9.8	2
0	7048	9.8	2
0	7049	9.8	2
0	7078	9.85	2
0	7079	9.85	2
0	7080	9.85	2
0	7081	9.85	2
0	7112	9.9	2
0	7113	9.9	2
0	7114	9.9	2
0	7115	9.9	2
0	7116	9.9	2
0	7117	9.9	2
0	7118	9.9	2
0	7119	9.9	2
0	7158	9.95	2
0	7159	9.95	2
0	7160	9.95	2
0	7161	9.95	2
0	7191	10	2
0	7192	10	2
0	7193	10	2
0	7194	10	2
0	7195	10	2
0	7196	10	2
0	7197	10	2
0	7198	10	2
0	7245	10.05	2
0	7246	10.05	2
0	7247	10.05	2
0	7248	10.05	2
0	7284	10.1	2
0	7285	10.1	2
0	7286	10.1	2
0	7287	10.1	2
0	7288	10.1	2
0	7289	10.1	2
0	7290	10.1	2
0	7291	10.1	2
0	7330	10.15	2
0	7331	10.15	2
0	7332	10.15	2
0	7333	10.15	2
0	7355	10.2	2
0	7356	10.2	2
0	7357	10.2	2
0	7358	10.2	2
0	7359	10.2	2
0	7360	10.2	2
0	7361	10.2	2
0	7362	10.2	2
0	7421	10.25	2
0	7422	10.25	2
0	7423	10.25	2
0	7424	10.25	2
0	7443	10.3	2
0	7444	10.3	2
0	7445	10.3	2
0	7446	10.3	2
0	7447	10.3	2
0	7448	10.3	2
0	7449	10.3	2
0	7450	10.3	2
0	7467	10.35	2
0	7468	10.35	2
0	7469	10.35	2
0	7470	10.35	2
0	7492	10.4	2
0	7493	10.4	2
0	7494	10.4	2
0	7495	10.4	2
0	7496	10.4	2
0	7497	10.4	2
0	7498	10.4	2
0	7499	10.4	2
0	7598	10.45	2
0	7599	10.45	2
0	7600	10.45	2
0	7601	10.45	2
0	7629	10.5	2
0	7630	10.5	2
0	7631	10.5	2
0	7632	10.5	2
0	7633	10.5	2
0	7634	10.5	2
0	7635	10.5	2
0	7636	10.5	2
0	7665	10.55	2
0	7666	10.55	2
0	7667	10.55	2
0	7668	10.55	2
0	7700	10.6	2
0	7701	10.6	2
0	7702	10.6	2
0	7703	10.6	2
0	7704	10.6	2
0	7705	10.6	2
0	7706	10.6	2
0	7707	10.6	2
0	7743	10.65	2
0	7744	10.65	2
0	7745	10.65	2
0	7746	10.65	2
0	7765	10.7	2
0	7766	10.7	2
0	7767	10.7	2
0	7768	10.7	2
0	7769	10.7	2
0	7770	10.7	2
0	7771	10.7	2
0	7772	10.7	2
0	7789	10.75	2
0	7790	10.75	2
0	7791	10.75	2
0	7792	10.75	2
0	7807	10.8	2
0	7808	10.8	2
0	7809	10.8	2
0	7810	10.8	2
0	7811	10.8	2
0	7812	10.8	2
0	7813	10.8	2
0	7814	10.8	2
0	7841	10.85	2
0	7842	10.85	2
0	7843	10.85	2
0	7844	10.85	2
0	7853	10.9	2
0	7854	10.9	2
0	7855	10.9	2
0	7856	10.9	2
0	7857	10.9	2
0	7858	10.9	2
0	7859	10.9	2
0	7860	10.9	2
0	7877	10.95	2
0	7878	10.95	2
0	7879	10.95	2
0	7880	10.95	2
0	7905	11	2
0	7906	11	2
0	7907	11	2
0	7908	11	2
0	7909	11	2
0	7910	11	2
0	7911	11	2
0	7912	11	2
0	7929	11.05	2
0	7930	11.05	2
0	7931	11.05	2
0	7932	11.05	2
0	7941	11.1	2
0	7942	11.1	2
0	7943	11.1	2
0	7944	11.1	2
0	7945	11.1	2
0	7946	11.1	2
0	7947	11.1	2
0	7948	11.1	2
0	7975	11.15	2
0	7976	11.15	2
0	7977	11.15	2
0	7978	11.15	2
0	7987	11.2	2
0	7988	11.2	2
0	7989	11.2	2
0	7990	11.2	2
0	7991	11.2	2
0	7992	11.2	2
0	7993	11.2	2
0	7994	11.2	2
0	8011	11.25	2
0	8012	11.25	2
0	8013	11.25	2
0	8014	11.25	2
0	8023	11.3	2
0	8024	11.3	2
0	8025	11.3	2
0	8026	11.3	2
0	8027	11.3	2
0	8028	11.3	2
0	8029	11.3	2
0	8030	11.3	2
0	8047	11.35	2
0	8048	11.35	2
0	8049	11.35	2
0	8050	11.35	2
0	8059	11.4	2
0	8060	11.4	2
0	8061	11.4	2
0	8062	11.4	2
0	8063	11.4	2
0	8064	11.4	2
0	8065	11.4	2
0	8066	11.4	2
0	8083	11.45	2
0	8084	11.45	2
0	8085	11.45	2
0	8086	11.45	2
0	8095	11.5	2
0	8096	11.5	2
0	8097	11.5	2
0	8098	11.5	2
0	8099	11.5	2
0	8100	11.5	2
0	8101	11.5	2
0	8102	11.5	2
0	8132	11.55	2
0	8133	11.55	2
0	8134	11.55	2
0	8135	11.55	2
0	8144	11.6	2
0	8145	11.6	2
0	8146	11.6	2
0	8147	11.6	2
0	8148	11.6	2
0	8149	11.6	2
0	8150	11.6	2
0	8151	11.6	2
0	8168	11.65	2
0	8169	11.65	2
0	8170	11.65	2
0	8171	11.65	2
0	8284	11.7	2
0	8285	11.7	2
0	8286	11.7	2
0	8287	11.7	2
0	8288	11.7	2
0	8289	11.7	2
0	8290	11.7	2
0	8291	11.7	2
0	8326	11.75	2
0	8327	11.75	2
0	8328	11.75	2
0	8329	11.75	2
0	8363	11.8	2
0	8364	11.8	2
0	8365	11.8	2
0	8366	11.8	2
0	8367	11.8	2
0	8368	11.8	2
0	8369	11.8	2
0	8370	11.8	2
0	8415	11.85	2
0	8416	11.85	2
0	8417	11.85	2
0	8418	11.85	2
0	8440	11.9	2
0	8441	11.9	2
0	8442	11.9	2
0	8443	11.9	2
0	8444	11.9	2
0	8445	11.9	2
0	8446	11.9	2
0	8447	11.9	2
0	8488	11.95	2
0	8489	11.95	2
0	8490	11.95	2
0	8491	11.95	2
0	8532	12	2
0	8533	12	2
0	8534	12	2
0	8535	12	2
0	8536	12	2
0	8537	12	2
0	8538	12	2
0	8539	12	2
0	8580	12.05	2
0	8581	12.05	2
0	8582	12.05	2
0	8583	12.05	2
0	8626	12.1	2
0	8627	12.1	2
0	8628	12.1	2
0	8629	12.1	2
0	8630	12.1	2
0	8631	12.1	2
0	8632	12.1	2
0	8633	12.1	2
0	8672	12.15	2
0	8673	12.15	2
0	8674	12.15	2
0	8675	12.15	2
0	8705	12.2	2
0	8706	12.2	2
0	8707	12.2	2
0	8708	12.2	2
0	8709	12.2	2
0	8710	12.2	2
0	8711	12.2	2
0	8712	12.2	2
0	8807	12.25	2
0	8808	12.25	2
0	8809	12.25	2
0	8810	12.25	2
0	8847	12.3	2
0	8848	12.3	2
0	8849	12.3	2
0	8850	12.3	2
0	8851	12.3	2
0	8852	12.3	2
0	8853	12.3	2
0	8854	12.3	2
0	8895	12.35	2
0	8896	12.35	2
0	8897	12.35	2
0	8898	12.35	2
0	8931	12.4	2
0	8932	12.4	2
0	8933	12.4	2
0	8934	12.4	2
0	8935	12.4	2
0	8936	12.4	2
0	8937	12.4	2
0	8938	12.4	2
0	8996	12.45	2
0	8997	12.45	2
0	8998	12.45	2
0	8999	12.45	2
0	9029	12.5	2
0	9030	12.5	2
0	9031	12.5	2
0	9032	12.5	2
0	9033	12.5	2
0	9034	12.5	2
0	9035	12.5	2
0	9036	12.5	2
0	9087	12.55	2
0	9088	12.55	2
0	9089	12.55	2
0	9090	12.55	2
0	9117	12.6	2
0	9118	12.6	2
0	9119	12.6	2
0	9120	12.6	2
0	9121	12.6	2
0	9122	12.6	2
0	9123	12.6	2
0	9124	12.6	2
0	9144	12.65	2
0	9145	12.65	2
0	9146	12.65	2
0	9147	12.65	2
0	9156	12.7	2
0	9157	12.7	2
0	9158	12.7	2
0	9159	12.7	2
0	9160	12.7	2
0	9161	12.7	2
0	9162	12.7	2
0	9163	12.7	2
0	9183	12.75	2
0	9184	12.75	2
0	9185	12.75	2
0	9186	12.75	2
0	9195	12.8	2
0	9196	12.8	2
0	9197	12.8	2
0	9198	12.8	2
0	9199	12.8	2
0	9200	12.8	2
0	9201	12.8	2
0	9202	12.8	2
0	9219	12.85	2
0	9220	12.85	2
0	9221	12.85	2
0	9222	12.85	2
0	9231	12.9	2
0	9232	12.9	2
0	9233	12.9	2
0	9234	12.9	2
0	9235	12.9	2
0	9236	12.9	2
0	9237	12.9	2
0	9238	12.9	2
0	9255	12.95	2
0	9256	12.95	2
0	9257	12.95	2
0	9258	12.95	2
0	9280	13	2
0	9281	13	2
0	9282	13	2
0	9283	13	2
0	9284	13	2
0	9285	13	2
0	9286	13	2
0	9287	13	2
0	9304	13.05	2
0	9305	13.05	2
0	9306	13.05	2
0	9307	13.05	2
0	9316	13.1	2
0	9317	13.1	2
0	9318	13.1	2
0	9319	13.1	2
0	9320	13.1	2
0	9321	13.1	2
0	9322	13.1	2
0	9323	13.1	2
0	9343	13.15	2
0	9344	13.15	2
0	9345	13.15	2
0	9346	13.15	2
0	9355	13.2	2
0	9356	13.2	2
0	9357	13.2	2
0	9358	13.2	2
0	9359	13.2	2
0	9360	13.2	2
0	9361	13.2	2
0	9362	13.2	2
0	9379	13.25	2
0	9380	13.25	2
0	9381	13.25	2
0	9382	13.25	2
0	9391	13.3	2
0	9392	13.3	2
0	9393	13.3	2
0	9394	13.3	2
0	9395	13.3	2
0	9396	13.3	2
0	9397	13.3	2
0	9398	13.3	2
0	9415	13.35	2
0	9416	13.35	2
0	9417	13.35	2
0	9418	13.35	2
0	9427	13.4	2
0	9428	13.4	2
0	9429	13.4	2
0	9430	13.4	2
0	9431	13.4	2
0	9432	13.4	2
0	9433	13.4	2
0	9434	13.4	2
0	9451	13.45	2
0	9452	13.45	2
0	9453	13.45	2
0	9454	13.45	2
0	9463	13.5	2
0	9464	13.5	2
0	9465	13.5	2
0	9466	13.5	2
0	9467	13.5	2
0	9468	13.5	2
0	9469	13.5	2
0	9470	13.5	2
0	9487	13.55	2
0	9488	13.55	2
0	9489	13.55	2
0	9490	13.55	2
0	9502	13.6	2
0	9503	13.6	2
0	9504	13.6	2
0	9505	13.6	2
0	9506	13.6	2
0	9507	13.6	2
0	9508	13.6	2
0	9509	13.6	2
0	9526	13.65	2
0	9527	13.65	2
0	9528	13.65	2
0	9529	13.65	2
0	9538	13.7	2
0	9539	13.7	2
0	9540	13.7	2
0	9541	13.7	2
0	9542	13.7	2
0	9543	13.7	2
0	9544	13.7	2
0	9545	13.7	2
0	9721	13.75	2
0	9722	13.75	2
0	9723	13.75	2
0	9724	13.75	2
0	9755	13.8	2
0	9756	13.8	2
0	9757	13.8	2
0	9758	13.8	2
0	9759	13.8	2
0	9760	13.8	2
0	9761	13.8	2
0	9762	13.8	2
0	9812	13.85	2
0	9813	13.85	2
0	9814	13.85	2
0	9815	13.85	2
0	9843	13.9	2
0	9844	13.9	2
0	9845	13.9	2
0	9846	13.9	2
0	9847	13.9	2
0	9848	13.9	2
0	9849	13.9	2
0	9850	13.9	2
0	9886	13.95	2
0	9887	13.95	2
0	9888	13.95	2
0	9889	13.95	2
0	9931	14	2
0	9932	14	2
0	9933	14	2
0	9934	14	2
0	9935	14	2
0	9936	14	2
0	9937	14	2
0	9938	14	2
0	9971	14.05	2
0	9972	14.05	2
0	9973	14.05	2
0	9974	14.05	2
0	10007	14.1	2
0	10008	14.1	2
0	10009	14.1	2
0	10010	14.1	2
0	10011	14.1	2
0	10012	14.1	2
0	10013	14.1	2
0	10014	14.1	2
0	10099	14.15	2
0	10100	14.15	2
0	10101	14.15	2
0	10102	14.15	2
0	10153	14.2	2
0	10154	14.2	2
0	10155	14.2	2
0	10156	14.2	2
0	10157	14.2	2
0	10158	14.2	2
0	10159	14.2	2
0	10160	14.2	2
0	10200	14.25	2
0	10201	14.25	2
0	10202	14.25	2
0	10203	14.25	2
0	10266	14.3	2
0	10267	14.3	2
0	10268	14.3	2
0	10269	14.3	2
0	10270	14.3	2
0	10271	14.3	2
0	10272	14.3	2
0	10273	14.3	2
0	10311	14.35	2
0	10312	14.35	2
0	10313	14.35	2
0	10314	14.35	2
0	10351	14.4	2
0	10352	14.4	2
0	10353	14.4	2
0	10354	14.4	2
0	10355	14.4	2
0	10356	14.4	2
0	10357	14.4	2
0	10358	14.4	2
0	10397	14.45	2
0	10398	14.45	2
0	10399	14.45	2
0	10400	14.45	2
0	10421	14.5	2
0	10422	14.5	2
0	10423	14.5	2
0	10424	14.5	2
0	10425	14.5	2
0	10426	14.5	2
0	10427	14.5	2
0	10428	14.5	2
0	10483	14.55	2
0	10484	14.55	2
0	10485	14.55	2
0	10486	14.55	2
0	10502	14.6	2
0	10503	14.6	2
0	10504	14.6	2
0	10505	14.6	2
0	10506	14.6	2
0	10507	14.6	2
0	10508	14.6	2
0	10509	14.6	2
0	10527	14.65	2
0	10528	14.65	2
0	10529	14.65	2
0	10530	14.65	2
0	10552	14.7	2
0	10553	14.7	2
0	10554	14.7	2
0	10555	14.7	2
0	10556	14.7	2
0	10557	14.7	2
0	10558	14.7	2
0	10559	14.7	2
0	10579	14.75	2
0	10580	14.75	2
0	10581	14.75	2
0	10582	14.75	2
0	10591	14.8	2
0	10592	14.8	2
0	10593	14.8	2
0	10594	14.8	2
0	10595	14.8	2
0	10596	14.8	2
0	10597	14.8	2
0	10598	14.8	2
0	10615	14.85	2
0	10616	14.85	2
0	10617	14.85	2
0	10618	14.85	2
0	10627	14.9	2
0	10628	14.9	2
0	10629	14.9	2
0	10630	14.9	2
0	10631	14.9	2
0	10632	14.9	2
0	10633	14.9	2
0	10634	14.9	2
0	10651	14.95	2
0	10652	14.95	2
0	10653	14.95	2
0	10654	14.95	2
0	10663	15	2
0	10664	15	2
0	10665	15	2
0	10666	15	2
0	10667	15	2
0	10668	15	2
0	10669	15	2
0	10670	15	2
0	10687	15.05	2
0	10688	15.05	2
0	10689	15.05	2
0	10690	15.05	2
0	10702	15.1	2
0	10703	15.1	2
0	10704	15.1	2
0	10705	15.1	2
0	10706	15.1	2
0	10707	15.1	2
0	10708	15.1	2
0	10709	15.1	2
0	10726	15.15	2
0	10727	15.15	2
0	10728	15.15	2
0	10729	15.15	2
0	10738	15.2	2
0	10739	15.2	2
0	10740	15.2	2
0	10741	15.2	2
0	10742	15.2	2
0	10743	15.2	2
0	10744	15.2	2
0	10745	15.2	2
0	10762	15.25	2
0	10763	15.25	2
0	10764	15.25	2
0	10765	15.25	2
0	10774	15.3	2
0	10775	15.3	2
0	10776	15.3	2
0	10777	15.3	2
0	10778	15.3	2
0	10779	15.3	2
0	10780	15.3	2
0	10781	15.3	2
0	10801	15.35	2
0	10802	15.35	2
0	10803	15.35	2
0	10804	15.35	2
0	10813	15.4	2
0	10814	15.4	2
0	10815	15.4	2
0	10816	15.4	2
0	10817	15.4	2
0	10818	15.4	2
0	10819	15.4	2
0	10820	15.4	2
0	10850	15.45	2
0	10851	15.45	2
0	10852	15.45	2
0	10853	15.45	2
0	10862	15.5	2
0	10863	15.5	2
0	10864	15.5	2
0	10865	15.5	2
0	10866	15.5	2
0	10867	15.5	2
0	10868	15.5	2
0	10869	15.5	2
0	10886	15.55	2
0	10887	15.55	2
0	10888	15.55	2
0	10889	15.55	2
0	10911	15.6	2
0	10912	15.6	2
0	10913	15.6	2
0	10914	15.6	2
0	10915	15.6	2
0	10916	15.6	2
0	10917	15.6	2
0	10918	15.6	2
0	10935	15.65	2
0	10936	15.65	2
0	10937	15.65	2
0	10938	15.65	2
0	10947	15.7	2
0	10948	15.7	2
0	10949	15.7	2
0	10950	15.7	2
0	10951	15.7	2
0	10952	15.7	2
0	10953	15.7	2
0	10954	15.7	2
0	10984	15.75	2
0	10985	15.75	2
0	10986	15.75	2
0	10987	15.75	2
0	10996	15.8	2
0	10997	15.8	2
0	10998	15.8	2
0	10999	15.8	2
0	11000	15.8	2
0	11001	15.8	2
0	11002	15.8	2
0	11003	15.8	2
0	11020	15.85	2
0	11021	15.85	2
0	11022	15.85	2
0	11023	15.85	2
0	11035	15.9	2
0	11036	15.9	2
0	11037	15.9	2
0	11038	15.9	2
0	11039	15.9	2
0	11040	15.9	2
0	11041	15.9	2
0	11042	15.9	2
0	11059	15.95	2
0	11060	15.95	2
0	11061	15.95	2
0	11062	15.95	2
0	11074	16	2
0	11075	16	2
0	11076	16	2
0	11077	16	2
0	11078	16	2
0	11079	16	2
0	11080	16	2
0	11081	16	2
0	11098	16.05	2
0	11099	16.05	2
0	11100	16.05	2
0	11101	16.05	2
0	11110	16.1	2
0	11111	16.1	2
0	11112	16.1	2
0	11113	16.1	2
0	11114	16.1	2
0	11115	16.1	2
0	11116	16.1	2
0	11117	16.1	2
0	11134	16.15	2
0	11135	16.15	2
0	11136	16.15	2
0	11137	16.15	2
0	11149	16.2	2
0	11150	16.2	2
0	11151	16.2	2
0	11152	16.2	2
0	11153	16.2	2
0	11154	16.2	2
0	11155	16.2	2
0	11156	16.2	2
0	11173	16.25	2
0	11174	16.25	2
0	11175	16.25	2
0	11176	16.25	2
0	11188	16.3	2
0	11189	16.3	2
0	11190	16.3	2
0	11191	16.3	2
0	11192	16.3	2
0	11193	16.3	2
0	11194	16.3	2
0	11195	16.3	2
0	11215	16.35	2
0	11216	16.35	2
0	11217	16.35	2
0	11218	16.35	2
0	11227	16.4	2
0	11228	16.4	2
0	11229	16.4	2
0	11230	16.4	2
0	11231	16.4	2
0	11232	16.4	2
0	11233	16.4	2
0	11234	16.4	2
0	11251	16.45	2
0	11252	16.45	2
0	11253	16.45	2
0	11254	16.45	2
0	11263	16.5	2
0	11264	16.5	2
0	11265	16.5	2
0	11266	16.5	2
0	11267	16.5	2
0	11268	16.5	2
0	11269	16.5	2
0	11270	16.5	2
0	11287	16.55	2
0	11288	16.55	2
0	11289	16.55	2
0	11290	16.55	2
0	11299	16.6	2
0	11300	16.6	2
0	11301	16.6	2
0	11302	16.6	2
0	11303	16.6	2
0	11304	16.6	2
0	11305	16.6	2
0	11306	16.6	2
0	11323	16.65	2
0	11324	16.65	2
0	11325	16.65	2
0	11326	16.65	2
0	11348	16.7	2
0	11349	16.7	2
0	11350	16.7	2
0	11351	16.7	2
0	11352	16.7	2
0	11353	16.7	2
0	11354	16.7	2
0	11355	16.7	2
0	11372	16.75	2
0	11373	16.75	2
0	11374	16.75	2
0	11375	16.75	2
0	11384	16.8	2
0	11385	16.8	2
0	11386	16.8	2
0	11387	16.8	2
0	11388	16.8	2
0	11389	16.8	2
0	11390	16.8	2
0	11391	16.8	2
0	11450	16.85	2
0	11451	16.85	2
0	11452	16.85	2
0	11453	16.85	2
0	11472	16.9	2
0	11473	16.9	2
0	11474	16.9	2
0	11475	16.9	2
0	11476	16.9	2
0	11477	16.9	2
0	11478	16.9	2
0	11479	16.9	2
0	11514	16.95	2
0	11515	16.95	2
0	11516	16.95	2
0	11517	16.95	2
0	11526	17	2
0	11527	17	2
0	11528	17	2
0	11529	17	2
0	11530	17	2
0	11531	17	2
0	11532	17	2
0	11533	17	2
0	11550	17.05	2
0	11551	17.05	2
0	11552	17.05	2
0	11553	17.05	2
0	11562	17.1	2
0	11563	17.1	2
0	11564	17.1	2
0	11565	17.1	2
0	11566	17.1	2
0	11567	17.1	2
0	11568	17.1	2
0	11569	17.1	2
0	11599	17.15	2
0	11600	17.15	2
0	11601	17.15	2
0	11602	17.15	2
0	11611	17.2	2
0	11612	17.2	2
0	11613	17.2	2
0	11614	17.2	2
0	11615	17.2	2
0	11616	17.2	2
0	11617	17.2	2
0	11618	17.2	2
0	11638	17.25	2
0	11639	17.25	2
0	11640	17.25	2
0	11641	17.25	2
0	11660	17.3	2
0	11661	17.3	2
0	11662	17.3	2
0	11663	17.3	2
0	11664	17.3	2
0	11665	17.3	2
0	11666	17.3	2
0	11667	17.3	2
0	11697	17.35	2
0	11698	17.35	2
0	11699	17.35	2
0	11700	17.35	2
0	11709	17.4	2
0	11710	17.4	2
0	11711	17.4	2
0	11712	17.4	2
0	11713	17.4	2
0	11714	17.4	2
0	11715	17.4	2
0	11716	17.4	2
0	11733	17.45	2
0	11734	17.45	2
0	11735	17.45	2
0	11736	17.45	2
0	11851	17.5	2
0	11852	17.5	2
0	11853	17.5	2
0	11854	17.5	2
0	11855	17.5	2
0	11856	17.5	2
0	11857	17.5	2
0	11858	17.5	2
0	11902	17.55	2
0	11903	17.55	2
0	11904	17.55	2
0	11905	17.55	2
0	11936	17.6	2
0	11937	17.6	2
0	11938	17.6	2
0	11939	17.6	2
0	11940	17.6	2
0	11941	17.6	2
0	11942	17.6	2
0	11943	17.6	2
0	11982	17.65	2
0	11983	17.65	2
0	11984	17.65	2
0	11985	17.65	2
0	12015	17.7	2
0	12016	17.7	2
0	12017	17.7	2
0	12018	17.7	2
0	12019	17.7	2
0	12020	17.7	2
0	12021	17.7	2
0	12022	17.7	2
0	12051	17.75	2
0	12052	17.75	2
0	12053	17.75	2
0	12054	17.75	2
0	12094	17.8	2
0	12095	17.8	2
0	12096	17.8	2
0	12097	17.8	2
0	12098	17.8	2
0	12099	17.8	2
0	12100	17.8	2
0	12101	17.8	2
0	12139	17.85	2
0	12140	17.85	2
0	12141	17.85	2
0	12142	17.85	2
0	12188	17.9	2
0	12189	17.9	2
0	12190	17.9	2
0	12191	17.9	2
0	12192	17.9	2
0	12193	17.9	2
0	12194	17.9	2
0	12195	17.9	2
0	12245	17.95	2
0	12246	17.95	2
0	12247	17.95	2
0	12248	17.95	2
0	12288	18	2
0	12289	18	2
0	12290	18	2
0	12291	18	2
0	12292	18	2
0	12293	18	2
0	12294	18	2
0	12295	18	2
0	12327	18.05	2
0	12328	18.05	2
0	12329	18.05	2
0	12330	18.05	2
0	12339	18.1	2
0	12340	18.1	2
0	12341	18.1	2
0	12342	18.1	2
0	12343	18.1	2
0	12344	18.1	2
0	12345	18.1	2
0	12346	18.1	2
0	12363	18.15	2
0	12364	18.15	2
0	12365	18.15	2
0	12366	18.15	2
0	12385	18.2	2
0	12386	18.2	2
0	12387	18.2	2
0	12388	18.2	2
0	12389	18.2	2
0	12390	18.2	2
0	12391	18.2	2
0	12392	18.2	2
0	12409	18.25	2
0	12410	18.25	2
0	12411	18.25	2
0	12412	18.25	2
0	12421	18.3	2
0	12422	18.3	2
0	12423	18.3	2
0	12424	18.3	2
0	12425	18.3	2
0	12426	18.3	2
0	12427	18.3	2
0	12428	18.3	2
0	12458	18.35	2
0	12459	18.35	2
0	12460	18.35	2
0	12461	18.35	2
0	12470	18.4	2
0	12471	18.4	2
0	12472	18.4	2
0	12473	18.4	2
0	12474	18.4	2
0	12475	18.4	2
0	12476	18.4	2
0	12477	18.4	2
0	12504	18.45	2
0	12505	18.45	2
0	12506	18.45	2
0	12507	18.45	2
0	12516	18.5	2
0	12517	18.5	2
0	12518	18.5	2
0	12519	18.5	2
0	12520	18.5	2
0	12521	18.5	2
0	12522	18.5	2
0	12523	18.5	2
0	12540	18.55	2
0	12541	18.55	2
0	12542	18.55	2
0	12543	18.55	2
0	12555	18.6	2
0	12556	18.6	2
0	12557	18.6	2
0	12558	18.6	2
0	12559	18.6	2
0	12560	18.6	2
0	12561	18.6	2
0	12562	18.6	2
0	12579	18.65	2
0	12580	18.65	2
0	12581	18.65	2
0	12582	18.65	2
0	12591	18.7	2
0	12592	18.7	2
0	12593	18.7	2
0	12594	18.7	2
0	12595	18.7	2
0	12596	18.7	2
0	12597	18.7	2
0	12598	18.7	2
0	12618	18.75	2
0	12619	18.75	2
0	12620	18.75	2
0	12621	18.75	2
0	12630	18.8	2
0	12631	18.8	2
0	12632	18.8	2
0	12633	18.8	2
0	12634	18.8	2
0	12635	18.8	2
0	12636	18.8	2
0	12637	18.8	2
0	12654	18.85	2
0	12655	18.85	2
0	12656	18.85	2
0	12657	18.85	2
0	12666	18.9	2
0	12667	18.9	2
0	12668	18.9	2
0	12669	18.9	2
0	12670	18.9	2
0	12671	18.9	2
0	12672	18.9	2
0	12673	18.9	2
0	12690	18.95	2
0	12691	18.95	2
0	12692	18.95	2
0	12693	18.95	2
0	12702	19	2
0	12703	19	2
0	12704	19	2
0	12705	19	2
0	12706	19	2
0	12707	19	2
0	12708	19	2
0	12709	19	2
0	12726	19.05	2
0	12727	19.05	2
0	12728	19.05	2
0	12729	19.05	2
0	12738	19.1	2
0	12739	19.1	2
0	12740	19.1	2
0	12741	19.1	2
0	12742	19.1	2
0	12743	19.1	2
0	12744	19.1	2
0	12745	19.1	2
0	12762	19.15	2
0	12763	19.15	2
0	12764	19.15	2
0	12765	19.15	2
0	12774	19.2	2
0	12775	19.2	2
0	12776	19.2	2
0	12777	19.2	2
0	12778	19.2	2
0	12779	19.2	2
0	12780	19.2	2
0	12781	19.2	2
0	12798	19.25	2
0	12799	19.25	2
0	12800	19.25	2
0	12801	19.25	2
0	12810	19.3	2
0	12811	19.3	2
0	12812	19.3	2
0	12813	19.3	2
0	12814	19.3	2
0	12815	19.3	2
0	12816	19.3	2
0	12817	19.3	2
0	12834	19.35	2
0	12835	19.35	2
0	12836	19.35	2
0	12837	19.35	2
0	12859	19.4	2
0	12860	19.4	2
0	12861	19.4	2
0	12862	19.4	2
0	12863	19.4	2
0	12864	19.4	2
0	12865	19.4	2
0	12866	19.4	2
0	12883	19.45	2
0	12884	19.45	2
0	12885	19.45	2
0	12886	19.45	2
0	12898	19.5	2
0	12899	19.5	2
0	12900	19.5	2
0	12901	19.5	2
0	12902	19.5	2
0	12903	19.5	2
0	12904	19.5	2
0	12905	19.5	2
0	13091	19.55	2
0	13092	19.55	2
0	13093	19.55	2
0	13094	19.55	2
0	13130	19.6	2
0	13131	19.6	2
0	13132	19.6	2
0	13133	19.6	2
0	13134	19.6	2
0	13135	19.6	2
0	13136	19.6	2
0	13137	19.6	2
0	13179	19.65	2
0	13180	19.65	2
0	13181	19.65	2
0	13182	19.65	2
0	13210	19.7	2
0	13211	19.7	2
0	13212	19.7	2
0	13213	19.7	2
0	13214	19.7	2
0	13215	19.7	2
0	13216	19.7	2
0	13217	19.7	2
0	13262	19.75	2
0	13263	19.75	2
0	13264	19.75	2
0	13265	19.75	2
0	13301	19.8	2
0	13302	19.8	2
0	13303	19.8	2
0	13304	19.8	2
0	13305	19.8	2
0	13306	19.8	2
0	13307	19.8	2
0	13308	19.8	2
0	13344	19.85	2
0	13345	19.85	2
0	13346	19.85	2
0	13347	19.85	2
0	13383	19.9	2
0	13384	19.9	2
0	13385	19.9	2
0	13386	19.9	2
0	13387	19.9	2
0	13388	19.9	2
0	13389	19.9	2
0	13390	19.9	2
0	13445	19.95	2
0	13446	19.95	2
0	13447	19.95	2
0	13448	19.95	2
0	13484	20	2
0	13485	20	2
0	13486	20	2
0	13487	20	2
0	13488	20	2
0	13489	20	2
0	13490	20	2
0	13491	20	2
0	13514	20.05	2
0	13515	20.05	2
0	13516	20.05	2
0	13517	20.05	2
0	13612	20.1	2
0	13613	20.1	2
0	13614	20.1	2
0	13615	20.1	2
0	13616	20.1	2
0	13617	20.1	2
0	13618	20.1	2
0	13619	20.1	2
0	13666	20.15	2
0	13667	20.15	2
0	13668	20.15	2
0	13669	20.15	2
0	13727	20.2	2
0	13728	20.2	2
0	13729	20.2	2
0	13730	20.2	2
0	13731	20.2	2
0	13732	20.2	2
0	13733	20.2	2
0	13734	20.2	2
0	13812	20.25	2
0	13813	20.25	2
0	13814	20.25	2
0	13815	20.25	2
0	13856	20.3	2
0	13857	20.3	2
0	13858	20.3	2
0	13859	20.3	2
0	13860	20.3	2
0	13861	20.3	2
0	13862	20.3	2
0	13863	20.3	2
0	13920	20.35	2
0	13921	20.35	2
0	13922	20.35	2
0	13923	20.35	2
0	13959	20.4	2
0	13960	20.4	2
0	13961	20.4	2
0	13962	20.4	2
0	13963	20.4	2
0	13964	20.4	2
0	13965	20.4	2
0	13966	20.4	2
0	14008	20.45	2
0	14009	20.45	2
0	14010	20.45	2
0	14011	20.45	2
0	14054	20.5	2
0	14055	20.5	2
0	14056	20.5	2
0	14057	20.5	2
0	14058	20.5	2
0	14059	20.5	2
0	14060	20.5	2
0	14061	20.5	2
0	14113	20.55	2
0	14114	20.55	2
0	14115	20.55	2
0	14116	20.55	2
0	14127	20.6	2
0	14128	20.6	2
0	14129	20.6	2
0	14130	20.6	2
0	14131	20.6	2
0	14132	20.6	2
0	14133	20.6	2
0	14134	20.6	2
0	14164	20.65	2
0	14165	20.65	2
0	14166	20.65	2
0	14167	20.65	2
0	14176	20.7	2
0	14177	20.7	2
0	14178	20.7	2
0	14179	20.7	2
0	14180	20.7	2
0	14181	20.7	2
0	14182	20.7	2
0	14183	20.7	2
0	14200	20.75	2
0	14201	20.75	2
0	14202	20.75	2
0	14203	20.75	2
0	14212	20.8	2
0	14213	20.8	2
0	14214	20.8	2
0	14215	20.8	2
0	14216	20.8	2
0	14217	20.8	2
0	14218	20.8	2
0	14219	20.8	2
0	14236	20.85	2
0	14237	20.85	2
0	14238	20.85	2
0	14239	20.85	2
0	14248	20.9	2
0	14249	20.9	2
0	14250	20.9	2
0	14251	20.9	2
0	14252	20.9	2
0	14253	20.9	2
0	14254	20.9	2
0	14255	20.9	2
0	14272	20.95	2
0	14273	20.95	2
0	14274	20.95	2
0	14275	20.95	2
0	14284	21	2
0	14285	21	2
0	14286	21	2
0	14287	21	2
0	14288	21	2
0	14289	21	2
0	14290	21	2
0	14291	21	2
0	14321	21.05	2
0	14322	21.05	2
0	14323	21.05	2
0	14324	21.05	2
0	14336	21.1	2
0	14337	21.1	2
0	14338	21.1	2
0	14339	21.1	2
0	14340	21.1	2
0	14341	21.1	2
0	14342	21.1	2
0	14343	21.1	2
0	14360	21.15	2
0	14361	21.15	2
0	14362	21.15	2
0	14363	21.15	2
0	14385	21.2	2
0	14386	21.2	2
0	14387	21.2	2
0	14388	21.2	2
0	14389	21.2	2
0	14390	21.2	2
0	14391	21.2	2
0	14392	21.2	2
0	14419	21.25	2
0	14420	21.25	2
0	14421	21.25	2
0	14422	21.25	2
0	14431	21.3	2
0	14432	21.3	2
0	14433	21.3	2
0	14434	21.3	2
0	14435	21.3	2
0	14436	21.3	2
0	14437	21.3	2
0	14438	21.3	2
0	14455	21.35	2
0	14456	21.35	2
0	14457	21.35	2
0	14458	21.35	2
0	14467	21.4	2
0	14468	21.4	2
0	14469	21.4	2
0	14470	21.4	2
0	14471	21.4	2
0	14472	21.4	2
0	14473	21.4	2
0	14474	21.4	2
0	14491	21.45	2
0	14492	21.45	2
0	14493	21.45	2
0	14494	21.45	2
0	14503	21.5	2
0	14504	21.5	2
0	14505	21.5	2
0	14506	21.5	2
0	14507	21.5	2
0	14508	21.5	2
0	14509	21.5	2
0	14510	21.5	2
0	14540	21.55	2
0	14541	21.55	2
0	14542	21.55	2
0	14543	21.55	2
0	14565	21.6	2
0	14566	21.6	2
0	14567	21.6	2
0	14568	21.6	2
0	14569	21.6	2
0	14570	21.6	2
0	14571	21.6	2
0	14572	21.6	2
0	14602	21.65	2
0	14603	21.65	2
0	14604	21.65	2
0	14605	21.65	2
0	14624	21.7	2
0	14625	21.7	2
0	14626	21.7	2
0	14627	21.7	2
0	14628	21.7	2
0	14629	21.7	2
0	14630	21.7	2
0	14631	21.7	2
0	14661	21.75	2
0	14662	21.75	2
0	14663	21.75	2
0	14664	21.75	2
0	14689	21.8	2
0	14690	21.8	2
0	14691	21.8	2
0	14692	21.8	2
0	14693	21.8	2
0	14694	21.8	2
0	14695	21.8	2
0	14696	21.8	2
0	14713	21.85	2
0	14714	21.85	2
0	14715	21.85	2
0	14716	21.85	2
0	14725	21.9	2
0	14726	21.9	2
0	14727	21.9	2
0	14728	21.9	2
0	14729	21.9	2
0	14730	21.9	2
0	14731	21.9	2
0	14732	21.9	2
0	14749	21.95	2
0	14750	21.95	2
0	14751	21.95	2
0	14752	21.95	2
0	14761	22	2
0	14762	22	2
0	14763	22	2
0	14764	22	2
0	14765	22	2
0	14766	22	2
0	14767	22	2
0	14768	22	2
0	14785	22.05	2
0	14786	22.05	2
0	14787	22.05	2
0	14788	22.05	2
0	14810	22.1	2
0	14811	22.1	2
0	14812	22.1	2
0	14813	22.1	2
0	14814	22.1	2
0	14815	22.1	2
0	14816	22.1	2
0	14817	22.1	2
0	14847	22.15	2
0	14848	22.15	2
0	14849	22.15	2
0	14850	22.15	2
0	14872	22.2	2
0	14873	22.2	2
0	14874	22.2	2
0	14875	22.2	2
0	14876	22.2	2
0	14877	22.2	2
0	14878	22.2	2
0	14879	22.2	2
0	15010	22.25	2
0	15011	22.25	2
0	15012	22.25	2
0	15013	22.25	2
0	15052	22.3	2
0	15053	22.3	2
0	15054	22.3	2
0	15055	22.3	2
0	15056	22.3	2
0	15057	22.3	2
0	15058	22.3	2
0	15059	22.3	2
0	15092	22.35	2
0	15093	22.35	2
0	15094	22.35	2
0	15095	22.35	2
0	15129	22.4	2
0	15130	22.4	2
0	15131	22.4	2
0	15132	22.4	2
0	15133	22.4	2
0	15134	22.4	2
0	15135	22.4	2
0	15136	22.4	2
0	15181	22.45	2
0	15182	22.45	2
0	15183	22.45	2
0	15184	22.45	2
0	15220	22.5	2
0	15221	22.5	2
0	15222	22.5	2
0	15223	22.5	2
0	15224	22.5	2
0	15225	22.5	2
0	15226	22.5	2
0	15227	22.5	2
0	15275	22.55	2
0	15276	22.55	2
0	15277	22.55	2
0	15278	22.55	2
0	15308	22.6	2
0	15309	22.6	2
0	15310	22.6	2
0	15311	22.6	2
0	15312	22.6	2
0	15313	22.6	2
0	15314	22.6	2
0	15315	22.6	2
0	15348	22.65	2
0	15349	22.65	2
0	15350	22.65	2
0	15351	22.65	2
0	15384	22.7	2
0	15385	22.7	2
0	15386	22.7	2
0	15387	22.7	2
0	15388	22.7	2
0	15389	22.7	2
0	15390	22.7	2
0	15391	22.7	2
0	15423	22.75	2
0	15424	22.75	2
0	15425	22.75	2
0	15426	22.75	2
0	15457	22.8	2
0	15458	22.8	2
0	15459	22.8	2
0	15460	22.8	2
0	15461	22.8	2
0	15462	22.8	2
0	15463	22.8	2
0	15464	22.8	2
0	15500	22.85	2
0	15501	22.85	2
0	15502	22.85	2
0	15503	22.85	2
0	15513	22.9	2
0	15514	22.9	2
0	15515	22.9	2
0	15516	22.9	2
0	15517	22.9	2
0	15518	22.9	2
0	15519	22.9	2
0	15520	22.9	2
0	15537	22.95	2
0	15538	22.95	2
0	15539	22.95	2
0	15540	22.95	2
0	15549	23	2
0	15550	23	2
0	15551	23	2
0	15552	23	2
0	15553	23	2
0	15554	23	2
0	15555	23	2
0	15556	23	2
0	15573	23.05	2
0	15574	23.05	2
0	15575	23.05	2
0	15576	23.05	2
0	15585	23.1	2
0	15586	23.1	2
0	15587	23.1	2
0	15588	23.1	2
0	15589	23.1	2
0	15590	23.1	2
0	15591	23.1	2
0	15592	23.1	2
0	15609	23.15	2
0	15610	23.15	2
0	15611	23.15	2
0	15612	23.15	2
0	15621	23.2	2
0	15622	23.2	2
0	15623	23.2	2
0	15624	23.2	2
0	15625	23.2	2
0	15626	23.2	2
0	15627	23.2	2
0	15628	23.2	2
0	15648	23.25	2
0	15649	23.25	2
0	15650	23.25	2
0	15651	23.25	2
0	15660	23.3	2
0	15661	23.3	2
0	15662	23.3	2
0	15663	23.3	2
0	15664	23.3	2
0	15665	23.3	2
0	15666	23.3	2
0	15667	23.3	2
0	15684	23.35	2
0	15685	23.35	2
0	15686	23.35	2
0	15687	23.35	2
0	15699	23.4	2
0	15700	23.4	2
0	15701	23.4	2
0	15702	23.4	2
0	15703	23.4	2
0	15704	23.4	2
0	15705	23.4	2
0	15706	23.4	2
0	15723	23.45	2
0	15724	23.45	2
0	15725	23.45	2
0	15726	23.45	2
0	15735	23.5	2
0	15736	23.5	2
0	15737	23.5	2
0	15738	23.5	2
0	15739	23.5	2
0	15740	23.5	2
0	15741	23.5	2
0	15742	23.5	2
0	15759	23.55	2
0	15760	23.55	2
0	15761	23.55	2
0	15762	23.55	2
0	15771	23.6	2
0	15772	23.6	2
0	15773	23.6	2
0	15774	23.6	2
0	15775	23.6	2
0	15776	23.6	2
0	15777	23.6	2
0	15778	23.6	2
0	15795	23.65	2
0	15796	23.65	2
0	15797	23.65	2
0	15798	23.65	2
0	15807	23.7	2
0	15808	23.7	2
0	15809	23.7	2
0	15810	23.7	2
0	15811	23.7	2
0	15812	23.7	2
0	15813	23.7	2
0	15814	23.7	2
0	15844	23.75	2
0	15845	23.75	2
0	15846	23.75	2
0	15847	23.75	2
0	15856	23.8	2
0	15857	23.8	2
0	15858	23.8	2
0	15859	23.8	2
0	15860	23.8	2
0	15861	23.8	2
0	15862	23.8	2
0	15863	23.8	2
0	15954	23.85	2
0	15955	23.85	2
0	15956	23.85	2
0	15957	23.85	2
0	16044	23.9	2
0	16045	23.9	2
0	16046	23.9	2
0	16047	23.9	2
0	16048	23.9	2
0	16049	23.9	2
0	16050	23.9	2
0	16051	23.9	2
0	16122	23.95	2
0	16123	23.95	2
0	16124	23.95	2
0	16125	23.95	2
0	16202	24	2
0	16203	24	2
0	16204	24	2
0	16205	24	2
0	16206	24	2
0	16207	24	2
0	16208	24	2
0	16209	24	2
0	16264	24.05	2
0	16265	24.05	2
0	16266	24.05	2
0	16267	24.05	2
0	16297	24.1	2
0	16298	24.1	2
0	16299	24.1	2
0	16300	24.1	2
0	16301	24.1	2
0	16302	24.1	2
0	16303	24.1	2
0	16304	24.1	2
0	16343	24.15	2
0	16344	24.15	2
0	16345	24.15	2
0	16346	24.15	2
0	16366	24.2	2
0	16367	24.2	2
0	16368	24.2	2
0	16369	24.2	2
0	16370	24.2	2
0	16371	24.2	2
0	16372	24.2	2
0	16373	24.2	2
0	16390	24.25	2
0	16391	24.25	2
0	16392	24.25	2
0	16393	24.25	2
0	16405	24.3	2
0	16406	24.3	2
0	16407	24.3	2
0	16408	24.3	2
0	16409	24.3	2
0	16410	24.3	2
0	16411	24.3	2
0	16412	24.3	2
0	16442	24.35	2
0	16443	24.35	2
0	16444	24.35	2
0	16445	24.35	2
0	16514	24.4	2
0	16515	24.4	2
0	16516	24.4	2
0	16517	24.4	2
0	16518	24.4	2
0	16519	24.4	2
0	16520	24.4	2
0	16521	24.4	2
0	16574	24.45	2
0	16575	24.45	2
0	16576	24.45	2
0	16577	24.45	2
0	16605	24.5	2
0	16606	24.5	2
0	16607	24.5	2
0	16608	24.5	2
0	16609	24.5	2
0	16610	24.5	2
0	16611	24.5	2
0	16612	24.5	2
0	16675	24.55	2
0	16676	24.55	2
0	16677	24.55	2
0	16678	24.55	2
0	16705	24.6	2
0	16706	24.6	2
0	16707	24.6	2
0	16708	24.6	2
0	16709	24.6	2
0	16710	24.6	2
0	16711	24.6	2
0	16712	24.6	2
0	16729	24.65	2
0	16730	24.65	2
0	16731	24.65	2
0	16732	24.65	2
0	16741	24.7	2
0	16742	24.7	2
0	16743	24.7	2
0	16744	24.7	2
0	16745	24.7	2
0	16746	24.7	2
0	16747	24.7	2
0	16748	24.7	2
0	16765	24.75	2
0	16766	24.75	2
0	16767	24.75	2
0	16768	24.75	2
0	16777	24.8	2
0	16778	24.8	2
0	16779	24.8	2
0	16780	24.8	2
0	16781	24.8	2
0	16782	24.8	2
0	16783	24.8	2
0	16784	24.8	2
0	16811	24.85	2
0	16812	24.85	2
0	16813	24.85	2
0	16814	24.85	2
0	16823	24.9	2
0	16824	24.9	2
0	16825	24.9	2
0	16826	24.9	2
0	16827	24.9	2
0	16828	24.9	2
0	16829	24.9	2
0	16830	24.9	2
0	16850	24.95	2
0	16851	24.95	2
0	16852	24.95	2
0	16853	24.95	2
0	16951	25	2
0	16952	25	2
0	16953	25	2
0	16954	25	2
0	16955	25	2
0	16956	25	2
0	16957	25	2
0	16958	25	2
0	16990	25.05	2
0	16991	25.05	2
0	16992	25.05	2
0	16993	25.05	2
0	17024	25.1	2
0	17025	25.1	2
0	17026	25.1	2
0	17027	25.1	2
0	17028	25.1	2
0	17029	25.1	2
0	17030	25.1	2
0	17031	25.1	2
0	17067	25.15	2
0	17068	25.15	2
0	17069	25.15	2
0	17070	25.15	2
0	17092	25.2	2
0	17093	25.2	2
0	17094	25.2	2
0	17095	25.2	2
0	17096	25.2	2
0	17097	25.2	2
0	17098	25.2	2
0	17099	25.2	2
0	17143	25.25	2
0	17144	25.25	2
0	17145	25.25	2
0	17146	25.25	2
0	17177	25.3	2
0	17178	25.3	2
0	17179	25.3	2
0	17180	25.3	2
0	17181	25.3	2
0	17182	25.3	2
0	17183	25.3	2
0	17184	25.3	2
0	17228	25.35	2
0	17229	25.35	2
0	17230	25.35	2
0	17231	25.35	2
0	17277	25.4	2
0	17278	25.4	2
0	17279	25.4	2
0	17280	25.4	2
0	17281	25.4	2
0	17282	25.4	2
0	17283	25.4	2
0	17284	25.4	2
0	17326	25.45	2
0	17327	25.45	2
0	17328	25.45	2
0	17329	25.45	2
0	17341	25.5	2
0	17342	25.5	2
0	17343	25.5	2
0	17344	25.5	2
0	17345	25.5	2
0	17346	25.5	2
0	17347	25.5	2
0	17348	25.5	2
0	17368	25.55	2
0	17369	25.55	2
0	17370	25.55	2
0	17371	25.55	2
0	17380	25.6	2
0	17381	25.6	2
0	17382	25.6	2
0	17383	25.6	2
0	17384	25.6	2
0	17385	25.6	2
0	17386	25.6	2
0	17387	25.6	2
0	17404	25.65	2
0	17405	25.65	2
0	17406	25.65	2
0	17407	25.65	2
0	17416	25.7	2
0	17417	25.7	2
0	17418	25.7	2
0	17419	25.7	2
0	17420	25.7	2
0	17421	25.7	2
0	17422	25.7	2
0	17423	25.7	2
0	17440	25.75	2
0	17441	25.75	2
0	17442	25.75	2
0	17443	25.75	2
0	17452	25.8	2
0	17453	25.8	2
0	17454	25.8	2
0	17455	25.8	2
0	17456	25.8	2
0	17457	25.8	2
0	17458	25.8	2
0	17459	25.8	2
0	17476	25.85	2
0	17477	25.85	2
0	17478	25.85	2
0	17479	25.85	2
0	17498	25.9	2
0	17499	25.9	2
0	17500	25.9	2
0	17501	25.9	2
0	17502	25.9	2
0	17503	25.9	2
0	17504	25.9	2
0	17505	25.9	2
0	17535	25.95	2
0	17536	25.95	2
0	17537	25.95	2
0	17538	25.95	2
0	17547	26	2
0	17548	26	2
0	17549	26	2
0	17550	26	2
0	17551	26	2
0	17552	26	2
0	17553	26	2
0	17554	26	2
0	17609	26.05	2
0	17610	26.05	2
0	17611	26.05	2
0	17612	26.05	2
0	17644	26.1	2
0	17645	26.1	2
0	17646	26.1	2
0	17647	26.1	2
0	17648	26.1	2
0	17649	26.1	2
0	17650	26.1	2
0	17651	26.1	2
0	17686	26.15	2
0	17687	26.15	2
0	17688	26.15	2
0	17689	26.15	2
0	17698	26.2	2
0	17699	26.2	2
0	17700	26.2	2
0	17701	26.2	2
0	17702	26.2	2
0	17703	26.2	2
0	17704	26.2	2
0	17705	26.2	2
0	17722	26.25	2
0	17723	26.25	2
0	17724	26.25	2
0	17725	26.25	2
0	17734	26.3	2
0	17735	26.3	2
0	17736	26.3	2
0	17737	26.3	2
0	17738	26.3	2
0	17739	26.3	2
0	17740	26.3	2
0	17741	26.3	2
0	17758	26.35	2
0	17759	26.35	2
0	17760	26.35	2
0	17761	26.35	2
0	17770	26.4	2
0	17771	26.4	2
0	17772	26.4	2
0	17773	26.4	2
0	17774	26.4	2
0	17775	26.4	2
0	17776	26.4	2
0	17777	26.4	2
0	17807	26.45	2
0	17808	26.45	2
0	17809	26.45	2
0	17810	26.45	2
0	17819	26.5	2
0	17820	26.5	2
0	17821	26.5	2
0	17822	26.5	2
0	17823	26.5	2
0	17824	26.5	2
0	17825	26.5	2
0	17826	26.5	2
0	17877	26.55	2
0	17878	26.55	2
0	17879	26.55	2
0	17880	26.55	2
0	17948	26.6	2
0	17949	26.6	2
0	17950	26.6	2
0	17951	26.6	2
0	17952	26.6	2
0	17953	26.6	2
0	17954	26.6	2
0	17955	26.6	2
0	17980	26.65	2
0	17981	26.65	2
0	17982	26.65	2
0	17983	26.65	2
0	17995	26.7	2
0	17996	26.7	2
0	17997	26.7	2
0	17998	26.7	2
0	17999	26.7	2
0	18000	26.7	2
0	18001	26.7	2
0	18002	26.7	2
0	18019	26.75	2
0	18020	26.75	2
0	18021	26.75	2
0	18022	26.75	2
0	18031	26.8	2
0	18032	26.8	2
0	18033	26.8	2
0	18034	26.8	2
0	18035	26.8	2
0	18036	26.8	2
0	18037	26.8	2
0	18038	26.8	2
0	18055	26.85	2
0	18056	26.85	2
0	18057	26.85	2
0	18058	26.85	2
0	18067	26.9	2
0	18068	26.9	2
0	18069	26.9	2
0	18070	26.9	2
0	18071	26.9	2
0	18072	26.9	2
0	18073	26.9	2
0	18074	26.9	2
0	18091	26.95	2
0	18092	26.95	2
0	18093	26.95	2
0	18094	26.95	2
0	18129	27	2
0	18130	27	2
0	18131	27	2
0	18132	27	2
0	18133	27	2
0	18134	27	2
0	18135	27	2
0	18136	27	2
0	18153	27.05	2
0	18154	27.05	2
0	18155	27.05	2
0	18156	27.05	2
0	18165	27.1	2
0	18166	27.1	2
0	18167	27.1	2
0	18168	27.1	2
0	18169	27.1	2
0	18170	27.1	2
0	18171	27.1	2
0	18172	27.1	2
0	18209	27.15	2
0	18210	27.15	2
0	18211	27.15	2
0	18212	27.15	2
0	18221	27.2	2
0	18222	27.2	2
0	18223	27.2	2
0	18224	27.2	2
0	18225	27.2	2
0	18226	27.2	2
0	18227	27.2	2
0	18228	27.2	2
0	18245	27.25	2
0	18246	27.25	2
0	18247	27.25	2
0	18248	27.25	2
0	18257	27.3	2
0	18258	27.3	2
0	18259	27.3	2
0	18260	27.3	2
0	18261	27.3	2
0	18262	27.3	2
0	18263	27.3	2
0	18264	27.3	2
0	18281	27.35	2
0	18282	27.35	2
0	18283	27.35	2
0	18284	27.35	2
0	18293	27.4	2
0	18294	27.4	2
0	18295	27.4	2
0	18296	27.4	2
0	18297	27.4	2
0	18298	27.4	2
0	18299	27.4	2
0	18300	27.4	2
0	18317	27.45	2
0	18318	27.45	2
0	18319	27.45	2
0	18320	27.45	2
0	18329	27.5	2
0	18330	27.5	2
0	18331	27.5	2
0	18332	27.5	2
0	18333	27.5	2
0	18334	27.5	2
0	18335	27.5	2
0	18336	27.5	2
0	18392	27.55	2
0	18393	27.55	2
0	18394	27.55	2
0	18395	27.55	2
0	18404	27.6	2
0	18405	27.6	2
0	18406	27.6	2
0	18407	27.6	2
0	18408	27.6	2
0	18409	27.6	2
0	18410	27.6	2
0	18411	27.6	2
0	18428	27.65	2
0	18429	27.65	2
0	18430	27.65	2
0	18431	27.65	2
0	18530	27.7	2
0	18531	27.7	2
0	18532	27.7	2
0	18533	27.7	2
0	18534	27.7	2
0	18535	27.7	2
0	18536	27.7	2
0	18537	27.7	2
0	18569	27.75	2
0	18570	27.75	2
0	18571	27.75	2
0	18572	27.75	2
0	18612	27.8	2
0	18613	27.8	2
0	18614	27.8	2
0	18615	27.8	2
0	18616	27.8	2
0	18617	27.8	2
0	18618	27.8	2
0	18619	27.8	2
0	18655	27.85	2
0	18656	27.85	2
0	18657	27.85	2
0	18658	27.85	2
0	18680	27.9	2
0	18681	27.9	2
0	18682	27.9	2
0	18683	27.9	2
0	18684	27.9	2
0	18685	27.9	2
0	18686	27.9	2
0	18687	27.9	2
0	18734	27.95	2
0	18735	27.95	2
0	18736	27.95	2
0	18737	27.95	2
0	18774	28	2
0	18775	28	2
0	18776	28	2
0	18777	28	2
0	18778	28	2
0	18779	28	2
0	18780	28	2
0	18781	28	2
0	18832	28.05	2
0	18833	28.05	2
0	18834	28.05	2
0	18835	28.05	2
0	18850	28.1	2
0	18851	28.1	2
0	18852	28.1	2
0	18853	28.1	2
0	18854	28.1	2
0	18855	28.1	2
0	18856	28.1	2
0	18857	28.1	2
0	18877	28.15	2
0	18878	28.15	2
0	18879	28.15	2
0	18880	28.15	2
0	18889	28.2	2
0	18890	28.2	2
0	18891	28.2	2
0	18892	28.2	2
0	18893	28.2	2
0	18894	28.2	2
0	18895	28.2	2
0	18896	28.2	2
0	18913	28.25	2
0	18914	28.25	2
0	18915	28.25	2
0	18916	28.25	2
0	18938	28.3	2
0	18939	28.3	2
0	18940	28.3	2
0	18941	28.3	2
0	18942	28.3	2
0	18943	28.3	2
0	18944	28.3	2
0	18945	28.3	2
0	18962	28.35	2
0	18963	28.35	2
0	18964	28.35	2
0	18965	28.35	2
0	18974	28.4	2
0	18975	28.4	2
0	18976	28.4	2
0	18977	28.4	2
0	18978	28.4	2
0	18979	28.4	2
0	18980	28.4	2
0	18981	28.4	2
0	18998	28.45	2
0	18999	28.45	2
0	19000	28.45	2
0	19001	28.45	2
0	19010	28.5	2
0	19011	28.5	2
0	19012	28.5	2
0	19013	28.5	2
0	19014	28.5	2
0	19015	28.5	2
0	19016	28.5	2
0	19017	28.5	2
0	19034	28.55	2
0	19035	28.55	2
0	19036	28.55	2
0	19037	28.55	2
0	19046	28.6	2
0	19047	28.6	2
0	19048	28.6	2
0	19049	28.6	2
0	19050	28.6	2
0	19051	28.6	2
0	19052	28.6	2
0	19053	28.6	2
0	19070	28.65	2
0	19071	28.65	2
0	19072	28.65	2
0	19073	28.65	2
0	19085	28.7	2
0	19086	28.7	2
0	19087	28.7	2
0	19088	28.7	2
0	19089	28.7	2
0	19090	28.7	2
0	19091	28.7	2
0	19092	28.7	2
0	19109	28.75	2
0	19110	28.75	2
0	19111	28.75	2
0	19112	28.75	2
0	19121	28.8	2
0	19122	28.8	2
0	19123	28.8	2
0	19124	28.8	2
0	19125	28.8	2
0	19126	28.8	2
0	19127	28.8	2
0	19128	28.8	2
0	19145	28.85	2
0	19146	28.85	2
0	19147	28.85	2
0	19148	28.85	2
0	19157	28.9	2
0	19158	28.9	2
0	19159	28.9	2
0	19160	28.9	2
0	19161	28.9	2
0	19162	28.9	2
0	19163	28.9	2
0	19164	28.9	2
0	19181	28.95	2
0	19182	28.95	2
0	19183	28.95	2
0	19184	28.95	2
0	19193	29	2
0	19194	29	2
0	19195	29	2
0	19196	29	2
0	19197	29	2
0	19198	29	2
0	19199	29	2
0	19200	29	2
0	19217	29.05	2
0	19218	29.05	2
0	19219	29.05	2
0	19220	29.05	2
0	19229	29.1	2
0	19230	29.1	2
0	19231	29.1	2
0	19232	29.1	2
0	19233	29.1	2
0	19234	29.1	2
0	19235	29.1	2
0	19236	29.1	2
0	19263	29.15	2
0	19264	29.15	2
0	19265	29.15	2
0	19266	29.15	2
0	19275	29.2	2
0	19276	29.2	2
0	19277	29.2	2
0	19278	29.2	2
0	19279	29.2	2
0	19280	29.2	2
0	19281	29.2	2
0	19282	29.2	2
0	19299	29.25	2
0	19300	29.25	2
0	19301	29.25	2
0	19302	29.25	2
0	19382	29.3	2
0	19383	29.3	2
0	19384	29.3	2
0	19385	29.3	2
0	19386	29.3	2
0	19387	29.3	2
0	19388	29.3	2
0	19389	29.3	2
0	19421	29.35	2
0	19422	29.35	2
0	19423	29.35	2
0	19424	29.35	2
0	19455	29.4	2
0	19456	29.4	2
0	19457	29.4	2
0	19458	29.4	2
0	19459	29.4	2
0	19460	29.4	2
0	19461	29.4	2
0	19462	29.4	2
0	19510	29.45	2
0	19511	29.45	2
0	19512	29.45	2
0	19513	29.45	2
0	19527	29.5	2
0	19528	29.5	2
0	19529	29.5	2
0	19530	29.5	2
0	19531	29.5	2
0	19532	29.5	2
0	19533	29.5	2
0	19534	29.5	2
0	19551	29.55	2
0	19552	29.55	2
0	19553	29.55	2
0	19554	29.55	2
0	19563	29.6	2
0	19564	29.6	2
0	19565	29.6	2
0	19566	29.6	2
0	19567	29.6	2
0	19568	29.6	2
0	19569	29.6	2
0	19570	29.6	2
0	19587	29.65	2
0	19588	29.65	2
0	19589	29.65	2
0	19590	29.65	2
0	19615	29.7	2
0	19616	29.7	2
0	19617	29.7	2
0	19618	29.7	2
0	19619	29.7	2
0	19620	29.7	2
0	19621	29.7	2
0	19622	29.7	2
0	19639	29.75	2
0	19640	29.75	2
0	19641	29.75	2
0	19642	29.75	2
0	19651	29.8	2
0	19652	29.8	2
0	19653	29.8	2
0	19654	29.8	2
0	19655	29.8	2
0	19656	29.8	2
0	19657	29.8	2
0	19658	29.8	2
0	19681	29.85	2
0	19682	29.85	2
0	19683	29.85	2
0	19684	29.85	2
0	19703	29.9	2
0	19704	29.9	2
0	19705	29.9	2
0	19706	29.9	2
0	19707	29.9	2
0	19708	29.9	2
0	19709	29.9	2
0	19710	29.9	2
0	19727	29.95	2
0	19728	29.95	2
0	19729	29.95	2
0	19730	29.95	2
0	19739	30	2
0	19740	30	2
0	19741	30	2
0	19742	30	2
0	19743	30	2
0	19744	30	2
0	19745	30	2
0	19746	30	2
0	19773	30.05	2
0	19774	30.05	2
0	19775	30.05	2
0	19776	30.05	2
0	19785	30.1	2
0	19786	30.1	2
0	19787	30.1	2
0	19788	30.1	2
0	19789	30.1	2
0	19790	30.1	2
0	19791	30.1	2
0	19792	30.1	2
0	19809	30.15	2
0	19810	30.15	2
0	19811	30.15	2
0	19812	30.15	2
0	19821	30.2	2
0	19822	30.2	2
0	19823	30.2	2
0	19824	30.2	2
0	19825	30.2	2
0	19826	30.2	2
0	19827	30.2	2
0	19828	30.2	2
0	19845	30.25	2
0	19846	30.25	2
0	19847	30.25	2
0	19848	30.25	2
0	19857	30.3	2
0	19858	30.3	2
0	19859	30.3	2
0	19860	30.3	2
0	19861	30.3	2
0	19862	30.3	2
0	19863	30.3	2
0	19864	30.3	2
0	19881	30.35	2
0	19882	30.35	2
0	19883	30.35	2
0	19884	30.35	2
0	19893	30.4	2
0	19894	30.4	2
0	19895	30.4	2
0	19896	30.4	2
0	19897	30.4	2
0	19898	30.4	2
0	19899	30.4	2
0	19900	30.4	2
0	19927	30.45	2
0	19928	30.45	2
0	19929	30.45	2
0	19930	30.45	2
0	19939	30.5	2
0	19940	30.5	2
0	19941	30.5	2
0	19942	30.5	2
0	19943	30.5	2
0	19944	30.5	2
0	19945	30.5	2
0	19946	30.5	2
0	19963	30.55	2
0	19964	30.55	2
0	19965	30.55	2
0	19966	30.55	2
0	19978	30.6	2
0	19979	30.6	2
0	19980	30.6	2
0	19981	30.6	2
0	19982	30.6	2
0	19983	30.6	2
0	19984	30.6	2
0	19985	30.6	2
0	20002	30.65	2
0	20003	30.65	2
0	20004	30.65	2
0	20005	30.65	2
0	20014	30.7	2
0	20015	30.7	2
0	20016	30.7	2
0	20017	30.7	2
0	20018	30.7	2
0	20019	30.7	2
0	20020	30.7	2
0	20021	30.7	2
0	20038	30.75	2
0	20039	30.75	2
0	20040	30.75	2
0	20041	30.75	2
0	20050	30.8	2
0	20051	30.8	2
0	20052	30.8	2
0	20053	30.8	2
0	20054	30.8	2
0	20055	30.8	2
0	20056	30.8	2
0	20057	30.8	2
0	20074	30.85	2
0	20075	30.85	2
0	20076	30.85	2
0	20077	30.85	2
0	20096	30.9	2
0	20097	30.9	2
0	20098	30.9	2
0	20099	30.9	2
0	20100	30.9	2
0	20101	30.9	2
0	20102	30.9	2
0	20103	30.9	2
0	20120	30.95	2
0	20121	30.95	2
0	20122	30.95	2
0	20123	30.95	2
0	20132	31	2
0	20133	31	2
0	20134	31	2
0	20135	31	2
0	20136	31	2
0	20137	31	2
0	20138	31	2
0	20139	31	2
0	20172	31.05	2
0	20173	31.05	2
0	20174	31.05	2
0	20175	31.05	2
0	20184	31.1	2
0	20185	31.1	2
0	20186	31.1	2
0	20187	31.1	2
0	20188	31.1	2
0	20189	31.1	2
0	20190	31.1	2
0	20191	31.1	2
0	20208	31.15	2
0	20209	31.15	2
0	20210	31.15	2
0	20211	31.15	2
0	20223	31.2	2
0	20224	31.2	2
0	20225	31.2	2
0	20226	31.2	2
0	20227	31.2	2
0	20228	31.2	2
0	20229	31.2	2
0	20230	31.2	2
0	20247	31.25	2
0	20248	31.25	2
0	20249	31.25	2
0	20250	31.25	2
0	20272	31.3	2
0	20273	31.3	2
0	20274	31.3	2
0	20275	31.3	2
0	20276	31.3	2
0	20277	31.3	2
0	20278	31.3	2
0	20279	31.3	2
0	20296	31.35	2
0	20297	31.35	2
0	20298	31.35	2
0	20299	31.35	2
0	20308	31.4	2
0	20309	31.4	2
0	20310	31.4	2
0	20311	31.4	2
0	20312	31.4	2
0	20313	31.4	2
0	20314	31.4	2
0	20315	31.4	2
0	20357	31.45	2
0	20358	31.45	2
0	20359	31.45	2
0	20360	31.45	2
0	20369	31.5	2
0	20370	31.5	2
0	20371	31.5	2
0	20372	31.5	2
0	20373	31.5	2
0	20374	31.5	2
0	20375	31.5	2
0	20376	31.5	2
0	20393	31.55	2
0	20394	31.55	2
0	20395	31.55	2
0	20396	31.55	2
0	20405	31.6	2
0	20406	31.6	2
0	20407	31.6	2
0	20408	31.6	2
0	20409	31.6	2
0	20410	31.6	2
0	20411	31.6	2
0	20412	31.6	2
0	20429	31.65	2
0	20430	31.65	2
0	20431	31.65	2
0	20432	31.65	2
0	20441	31.7	2
0	20442	31.7	2
0	20443	31.7	2
0	20444	31.7	2
0	20445	31.7	2
0	20446	31.7	2
0	20447	31.7	2
0	20448	31.7	2
0	20465	31.75	2
0	20466	31.75	2
0	20467	31.75	2
0	20468	31.75	2
0	20477	31.8	2
0	20478	31.8	2
0	20479	31.8	2
0	20480	31.8	2
0	20481	31.8	2
0	20482	31.8	2
0	20483	31.8	2
0	20484	31.8	2
0	20514	31.85	2
0	20515	31.85	2
0	20516	31.85	2
0	20517	31.85	2
0	20526	31.9	2
0	20527	31.9	2
0	20528	31.9	2
0	20529	31.9	2
0	20530	31.9	2
0	20531	31.9	2
0	20532	31.9	2
0	20533	31.9	2
0	20550	31.95	2
0	20551	31.95	2
0	20552	31.95	2
0	20553	31.95	2
0	20590	32	2
0	20591	32	2
0	20592	32	2
0	20593	32	2
0	20594	32	2
0	20595	32	2
0	20596	32	2
0	20597	32	2
0	20627	32.05	2
0	20628	32.05	2
0	20629	32.05	2
0	20630	32.05	2
0	20639	32.1	2
0	20640	32.1	2
0	20641	32.1	2
0	20642	32.1	2
0	20643	32.1	2
0	20644	32.1	2
0	20645	32.1	2
0	20646	32.1	2
0	20663	32.15	2
0	20664	32.15	2
0	20665	32.15	2
0	20666	32.15	2
0	20712	32.2	2
0	20713	32.2	2
0	20714	32.2	2
0	20715	32.2	2
0	20716	32.2	2
0	20717	32.2	2
0	20718	32.2	2
0	20719	32.2	2
0	20736	32.25	2
0	20737	32.25	2
0	20738	32.25	2
0	20739	32.25	2
0	20748	32.3	2
0	20749	32.3	2
0	20750	32.3	2
0	20751	32.3	2
0	20752	32.3	2
0	20753	32.3	2
0	20754	32.3	2
0	20755	32.3	2
0	20772	32.35	2
0	20773	32.35	2
0	20774	32.35	2
0	20775	32.35	2
0	20797	32.4	2
0	20798	32.4	2
0	20799	32.4	2
0	20800	32.4	2
0	20801	32.4	2
0	20802	32.4	2
0	20803	32.4	2
0	20804	32.4	2
0	20821	32.45	2
0	20822	32.45	2
0	20823	32.45	2
0	20824	32.45	2
0	20846	32.5	2
0	20847	32.5	2
0	20848	32.5	2
0	20849	32.5	2
0	20850	32.5	2
0	20851	32.5	2
0	20852	32.5	2
0	20853	32.5	2
0	20873	32.55	2
0	20874	32.55	2
0	20875	32.55	2
0	20876	32.55	2
0	20888	32.6	2
0	20889	32.6	2
0	20890	32.6	2
0	20891	32.6	2
0	20892	32.6	2
0	20893	32.6	2
0	20894	32.6	2
0	20895	32.6	2
0	20935	32.65	2
0	20936	32.65	2
0	20937	32.65	2
0	20938	32.65	2
0	20947	32.7	2
0	20948	32.7	2
0	20949	32.7	2
0	20950	32.7	2
0	20951	32.7	2
0	20952	32.7	2
0	20953	32.7	2
0	20954	32.7	2
0	20971	32.75	2
0	20972	32.75	2
0	20973	32.75	2
0	20974	32.75	2
0	21024	32.8	2
0	21025	32.8	2
0	21026	32.8	2
0	21027	32.8	2
0	21028	32.8	2
0	21029	32.8	2
0	21030	32.8	2
0	21031	32.8	2
0	21072	32.85	2
0	21073	32.85	2
0	21074	32.85	2
0	21075	32.85	2
0	21103	32.9	2
0	21104	32.9	2
0	21105	32.9	2
0	21106	32.9	2
0	21107	32.9	2
0	21108	32.9	2
0	21109	32.9	2
0	21110	32.9	2
0	21128	32.95	2
0	21129	32.95	2
0	21130	32.95	2
0	21131	32.95	2
0	21140	33	2
0	21141	33	2
0	21142	33	2
0	21143	33	2
0	21144	33	2
0	21145	33	2
0	21146	33	2
0	21147	33	2
0	21177	33.05	2
0	21178	33.05	2
0	21179	33.05	2
0	21180	33.05	2
0	21189	33.1	2
0	21190	33.1	2
0	21191	33.1	2
0	21192	33.1	2
0	21193	33.1	2
0	21194	33.1	2
0	21195	33.1	2
0	21196	33.1	2
0	21213	33.15	2
0	21214	33.15	2
0	21215	33.15	2
0	21216	33.15	2
0	21251	33.2	2
0	21252	33.2	2
0	21253	33.2	2
0	21254	33.2	2
0	21255	33.2	2
0	21256	33.2	2
0	21257	33.2	2
0	21258	33.2	2
0	21275	33.25	2
0	21276	33.25	2
0	21277	33.25	2
0	21278	33.25	2
0	21287	33.3	2
0	21288	33.3	2
0	21289	33.3	2
0	21290	33.3	2
0	21291	33.3	2
0	21292	33.3	2
0	21293	33.3	2
0	21294	33.3	2
0	21314	33.35	2
0	21315	33.35	2
0	21316	33.35	2
0	21317	33.35	2
0	21326	33.4	2
0	21327	33.4	2
0	21328	33.4	2
0	21329	33.4	2
0	21330	33.4	2
0	21331	33.4	2
0	21332	33.4	2
0	21333	33.4	2
0	21350	33.45	2
0	21351	33.45	2
0	21352	33.45	2
0	21353	33.45	2
0	21362	33.5	2
0	21363	33.5	2
0	21364	33.5	2
0	21365	33.5	2
0	21366	33.5	2
0	21367	33.5	2
0	21368	33.5	2
0	21369	33.5	2
0	21386	33.55	2
0	21387	33.55	2
0	21388	33.55	2
0	21389	33.55	2
0	21401	33.6	2
0	21402	33.6	2
0	21403	33.6	2
0	21404	33.6	2
0	21405	33.6	2
0	21406	33.6	2
0	21407	33.6	2
0	21408	33.6	2
0	21425	33.65	2
0	21426	33.65	2
0	21427	33.65	2
0	21428	33.65	2
0	21437	33.7	2
0	21438	33.7	2
0	21439	33.7	2
0	21440	33.7	2
0	21441	33.7	2
0	21442	33.7	2
0	21443	33.7	2
0	21444	33.7	2
0	21461	33.75	2
0	21462	33.75	2
0	21463	33.75	2
0	21464	33.75	2
0	21476	33.8	2
0	21477	33.8	2
0	21478	33.8	2
0	21479	33.8	2
0	21480	33.8	2
0	21481	33.8	2
0	21482	33.8	2
0	21483	33.8	2
0	21500	33.85	2
0	21501	33.85	2
0	21502	33.85	2
0	21503	33.85	2
0	21512	33.9	2
0	21513	33.9	2
0	21514	33.9	2
0	21515	33.9	2
0	21516	33.9	2
0	21517	33.9	2
0	21518	33.9	2
0	21519	33.9	2
0	21536	33.95	2
0	21537	33.95	2
0	21538	33.95	2
0	21539	33.95	2
0	21558	34	2
0	21559	34	2
0	21560	34	2
0	21561	34	2
0	21562	34	2
0	21563	34	2
0	21564	34	2
0	21565	34	2
0	21582	34.05	2
0	21583	34.05	2
0	21584	34.05	2
0	21585	34.05	2
0	21594	34.1	2
0	21595	34.1	2
0	21596	34.1	2
0	21597	34.1	2
0	21598	34.1	2
0	21599	34.1	2
0	21600	34.1	2
0	21601	34.1	2
0	21621	34.15	2
0	21622	34.15	2
0	21623	34.15	2
0	21624	34.15	2
0	21643	34.2	2
0	21644	34.2	2
0	21645	34.2	2
0	21646	34.2	2
0	21647	34.2	2
0	21648	34.2	2
0	21649	34.2	2
0	21650	34.2	2
0	21667	34.25	2
0	21668	34.25	2
0	21669	34.25	2
0	21670	34.25	2
0	21679	34.3	2
0	21680	34.3	2
0	21681	34.3	2
0	21682	34.3	2
0	21683	34.3	2
0	21684	34.3	2
0	21685	34.3	2
0	21686	34.3	2
0	21713	34.35	2
0	21714	34.35	2
0	21715	34.35	2
0	21716	34.35	2
0	21725	34.4	2
0	21726	34.4	2
0	21727	34.4	2
0	21728	34.4	2
0	21729	34.4	2
0	21730	34.4	2
0	21731	34.4	2
0	21732	34.4	2
0	21749	34.45	2
0	21750	34.45	2
0	21751	34.45	2
0	21752	34.45	2
0	21761	34.5	2
0	21762	34.5	2
0	21763	34.5	2
0	21764	34.5	2
0	21765	34.5	2
0	21766	34.5	2
0	21767	34.5	2
0	21768	34.5	2
0	21785	34.55	2
0	21786	34.55	2
0	21787	34.55	2
0	21788	34.55	2
0	21797	34.6	2
0	21798	34.6	2
0	21799	34.6	2
0	21800	34.6	2
0	21801	34.6	2
0	21802	34.6	2
0	21803	34.6	2
0	21804	34.6	2
0	21821	34.65	2
0	21822	34.65	2
0	21823	34.65	2
0	21824	34.65	2
0	21833	34.7	2
0	21834	34.7	2
0	21835	34.7	2
0	21836	34.7	2
0	21837	34.7	2
0	21838	34.7	2
0	21839	34.7	2
0	21840	34.7	2
0	21867	34.75	2
0	21868	34.75	2
0	21869	34.75	2
0	21870	34.75	2
0	21895	34.8	2
0	21896	34.8	2
0	21897	34.8	2
0	21898	34.8	2
0	21899	34.8	2
0	21900	34.8	2
0	21901	34.8	2
0	21902	34.8	2
0	21919	34.85	2
0	21920	34.85	2
0	21921	34.85	2
0	21922	34.85	2
0	21941	34.9	2
0	21942	34.9	2
0	21943	34.9	2
0	21944	34.9	2
0	21945	34.9	2
0	21946	34.9	2
0	21947	34.9	2
0	21948	34.9	2
0	22024	34.95	2
0	22025	34.95	2
0	22026	34.95	2
0	22027	34.95	2
0	22066	35	2
0	22067	35	2
0	22068	35	2
0	22069	35	2
0	22070	35	2
0	22071	35	2
0	22072	35	2
0	22073	35	2
0	22105	35.05	2
0	22106	35.05	2
0	22107	35.05	2
0	22108	35.05	2
0	22117	35.1	2
0	22118	35.1	2
0	22119	35.1	2
0	22120	35.1	2
0	22121	35.1	2
0	22122	35.1	2
0	22123	35.1	2
0	22124	35.1	2
0	22141	35.15	2
0	22142	35.15	2
0	22143	35.15	2
0	22144	35.15	2
0	22153	35.2	2
0	22154	35.2	2
0	22155	35.2	2
0	22156	35.2	2
0	22157	35.2	2
0	22158	35.2	2
0	22159	35.2	2
0	22160	35.2	2
0	22177	35.25	2
0	22178	35.25	2
0	22179	35.25	2
0	22180	35.25	2
0	22192	35.3	2
0	22193	35.3	2
0	22194	35.3	2
0	22195	35.3	2
0	22196	35.3	2
0	22197	35.3	2
0	22198	35.3	2
0	22199	35.3	2
0	22232	35.35	2
0	22233	35.35	2
0	22234	35.35	2
0	22235	35.35	2
0	22244	35.4	2
0	22245	35.4	2
0	22246	35.4	2
0	22247	35.4	2
0	22248	35.4	2
0	22249	35.4	2
0	22250	35.4	2
0	22251	35.4	2
0	22268	35.45	2
0	22269	35.45	2
0	22270	35.45	2
0	22271	35.45	2
0	22290	35.5	2
0	22291	35.5	2
0	22292	35.5	2
0	22293	35.5	2
0	22294	35.5	2
0	22295	35.5	2
0	22296	35.5	2
0	22297	35.5	2
0	22314	35.55	2
0	22315	35.55	2
0	22316	35.55	2
0	22317	35.55	2
0	22329	35.6	2
0	22330	35.6	2
0	22331	35.6	2
0	22332	35.6	2
0	22333	35.6	2
0	22334	35.6	2
0	22335	35.6	2
0	22336	35.6	2
0	22353	35.65	2
0	22354	35.65	2
0	22355	35.65	2
0	22356	35.65	2
0	22365	35.7	2
0	22366	35.7	2
0	22367	35.7	2
0	22368	35.7	2
0	22369	35.7	2
0	22370	35.7	2
0	22371	35.7	2
0	22372	35.7	2
0	22392	35.75	2
0	22393	35.75	2
0	22394	35.75	2
0	22395	35.75	2
0	22404	35.8	2
0	22405	35.8	2
0	22406	35.8	2
0	22407	35.8	2
0	22408	35.8	2
0	22409	35.8	2
0	22410	35.8	2
0	22411	35.8	2
0	22428	35.85	2
0	22429	35.85	2
0	22430	35.85	2
0	22431	35.85	2
0	22453	35.9	2
0	22454	35.9	2
0	22455	35.9	2
0	22456	35.9	2
0	22457	35.9	2
0	22458	35.9	2
0	22459	35.9	2
0	22460	35.9	2
0	22477	35.95	2
0	22478	35.95	2
0	22479	35.95	2
0	22480	35.95	2
0	22489	36	2
0	22490	36	2
0	22491	36	2
0	22492	36	2
0	22493	36	2
0	22494	36	2
0	22495	36	2
0	22496	36	2
0	22526	36.05	2
0	22527	36.05	2
0	22528	36.05	2
0	22529	36.05	2
0	22538	36.1	2
0	22539	36.1	2
0	22540	36.1	2
0	22541	36.1	2
0	22542	36.1	2
0	22543	36.1	2
0	22544	36.1	2
0	22545	36.1	2
0	22562	36.15	2
0	22563	36.15	2
0	22564	36.15	2
0	22565	36.15	2
0	22574	36.2	2
0	22575	36.2	2
0	22576	36.2	2
0	22577	36.2	2
0	22578	36.2	2
0	22579	36.2	2
0	22580	36.2	2
0	22581	36.2	2
0	22598	36.25	2
0	22599	36.25	2
0	22600	36.25	2
0	22601	36.25	2
0	22610	36.3	2
0	22611	36.3	2
0	22612	36.3	2
0	22613	36.3	2
0	22614	36.3	2
0	22615	36.3	2
0	22616	36.3	2
0	22617	36.3	2
0	22634	36.35	2
0	22635	36.35	2
0	22636	36.35	2
0	22637	36.35	2
0	22646	36.4	2
0	22647	36.4	2
0	22648	36.4	2
0	22649	36.4	2
0	22650	36.4	2
0	22651	36.4	2
0	22652	36.4	2
0	22653	36.4	2
0	22683	36.45	2
0	22684	36.45	2
0	22685	36.45	2
0	22686	36.45	2
0	22708	36.5	2
0	22709	36.5	2
0	22710	36.5	2
0	22711	36.5	2
0	22712	36.5	2
0	22713	36.5	2
0	22714	36.5	2
0	22715	36.5	2
0	22768	36.55	2
0	22769	36.55	2
0	22770	36.55	2
0	22771	36.55	2
0	22800	36.6	2
0	22801	36.6	2
0	22802	36.6	2
0	22803	36.6	2
0	22804	36.6	2
0	22805	36.6	2
0	22806	36.6	2
0	22807	36.6	2
0	22837	36.65	2
0	22838	36.65	2
0	22839	36.65	2
0	22840	36.65	2
0	22859	36.7	2
0	22860	36.7	2
0	22861	36.7	2
0	22862	36.7	2
0	22863	36.7	2
0	22864	36.7	2
0	22865	36.7	2
0	22866	36.7	2
0	22883	36.75	2
0	22884	36.75	2
0	22885	36.75	2
0	22886	36.75	2
0	22895	36.8	2
0	22896	36.8	2
0	22897	36.8	2
0	22898	36.8	2
0	22899	36.8	2
0	22900	36.8	2
0	22901	36.8	2
0	22902	36.8	2
0	22919	36.85	2
0	22920	36.85	2
0	22921	36.85	2
0	22922	36.85	2
0	22931	36.9	2
0	22932	36.9	2
0	22933	36.9	2
0	22934	36.9	2
0	22935	36.9	2
0	22936	36.9	2
0	22937	36.9	2
0	22938	36.9	2
0	22955	36.95	2
0	22956	36.95	2
0	22957	36.95	2
0	22958	36.95	2
0	22980	37	2
0	22981	37	2
0	22982	37	2
0	22983	37	2
0	22984	37	2
0	22985	37	2
0	22986	37	2
0	22987	37	2
0	23017	37.05	2
0	23018	37.05	2
0	23019	37.05	2
0	23020	37.05	2
0	23054	37.1	2
0	23055	37.1	2
0	23056	37.1	2
0	23057	37.1	2
0	23058	37.1	2
0	23059	37.1	2
0	23060	37.1	2
0	23061	37.1	2
0	23088	37.15	2
0	23089	37.15	2
0	23090	37.15	2
0	23091	37.15	2
0	23126	37.2	2
0	23127	37.2	2
0	23128	37.2	2
0	23129	37.2	2
0	23130	37.2	2
0	23131	37.2	2
0	23132	37.2	2
0	23133	37.2	2
0	23163	37.25	2
0	23164	37.25	2
0	23165	37.25	2
0	23166	37.25	2
0	23175	37.3	2
0	23176	37.3	2
0	23177	37.3	2
0	23178	37.3	2
0	23179	37.3	2
0	23180	37.3	2
0	23181	37.3	2
0	23182	37.3	2
0	23202	37.35	2
0	23203	37.35	2
0	23204	37.35	2
0	23205	37.35	2
0	23214	37.4	2
0	23215	37.4	2
0	23216	37.4	2
0	23217	37.4	2
0	23218	37.4	2
0	23219	37.4	2
0	23220	37.4	2
0	23221	37.4	2
0	23238	37.45	2
0	23239	37.45	2
0	23240	37.45	2
0	23241	37.45	2
0	23250	37.5	2
0	23251	37.5	2
0	23252	37.5	2
0	23253	37.5	2
0	23254	37.5	2
0	23255	37.5	2
0	23256	37.5	2
0	23257	37.5	2
0	23284	37.55	2
0	23285	37.55	2
0	23286	37.55	2
0	23287	37.55	2
0	23309	37.6	2
0	23310	37.6	2
0	23311	37.6	2
0	23312	37.6	2
0	23313	37.6	2
0	23314	37.6	2
0	23315	37.6	2
0	23316	37.6	2
0	23343	37.65	2
0	23344	37.65	2
0	23345	37.65	2
0	23346	37.65	2
0	23368	37.7	2
0	23369	37.7	2
0	23370	37.7	2
0	23371	37.7	2
0	23372	37.7	2
0	23373	37.7	2
0	23374	37.7	2
0	23375	37.7	2
0	23405	37.75	2
0	23406	37.75	2
0	23407	37.75	2
0	23408	37.75	2
0	23427	37.8	2
0	23428	37.8	2
0	23429	37.8	2
0	23430	37.8	2
0	23431	37.8	2
0	23432	37.8	2
0	23433	37.8	2
0	23434	37.8	2
0	23451	37.85	2
0	23452	37.85	2
0	23453	37.85	2
0	23454	37.85	2
0	23463	37.9	2
0	23464	37.9	2
0	23465	37.9	2
0	23466	37.9	2
0	23467	37.9	2
0	23468	37.9	2
0	23469	37.9	2
0	23470	37.9	2
0	23487	37.95	2
0	23488	37.95	2
0	23489	37.95	2
0	23490	37.95	2
0	23499	38	2
0	23500	38	2
0	23501	38	2
0	23502	38	2
0	23503	38	2
0	23504	38	2
0	23505	38	2
0	23506	38	2
0	23523	38.05	2
0	23524	38.05	2
0	23525	38.05	2
0	23526	38.05	2
0	23538	38.1	2
0	23539	38.1	2
0	23540	38.1	2
0	23541	38.1	2
0	23542	38.1	2
0	23543	38.1	2
0	23544	38.1	2
0	23545	38.1	2
0	23565	38.15	2
0	23566	38.15	2
0	23567	38.15	2
0	23568	38.15	2
0	23590	38.2	2
0	23591	38.2	2
0	23592	38.2	2
0	23593	38.2	2
0	23594	38.2	2
0	23595	38.2	2
0	23596	38.2	2
0	23597	38.2	2
0	23614	38.25	2
0	23615	38.25	2
0	23616	38.25	2
0	23617	38.25	2
0	23626	38.3	2
0	23627	38.3	2
0	23628	38.3	2
0	23629	38.3	2
0	23630	38.3	2
0	23631	38.3	2
0	23632	38.3	2
0	23633	38.3	2
0	23660	38.35	2
0	23661	38.35	2
0	23662	38.35	2
0	23663	38.35	2
0	23672	38.4	2
0	23673	38.4	2
0	23674	38.4	2
0	23675	38.4	2
0	23676	38.4	2
0	23677	38.4	2
0	23678	38.4	2
0	23679	38.4	2
0	23696	38.45	2
0	23697	38.45	2
0	23698	38.45	2
0	23699	38.45	2
0	23708	38.5	2
0	23709	38.5	2
0	23710	38.5	2
0	23711	38.5	2
0	23712	38.5	2
0	23713	38.5	2
0	23714	38.5	2
0	23715	38.5	2
0	23732	38.55	2
0	23733	38.55	2
0	23734	38.55	2
0	23735	38.55	2
0	23744	38.6	2
0	23745	38.6	2
0	23746	38.6	2
0	23747	38.6	2
0	23748	38.6	2
0	23749	38.6	2
0	23750	38.6	2
0	23751	38.6	2
0	23768	38.65	2
0	23769	38.65	2
0	23770	38.65	2
0	23771	38.65	2
0	23780	38.7	2
0	23781	38.7	2
0	23782	38.7	2
0	23783	38.7	2
0	23784	38.7	2
0	23785	38.7	2
0	23786	38.7	2
0	23787	38.7	2
0	23817	38.75	2
0	23818	38.75	2
0	23819	38.75	2
0	23820	38.75	2
0	23842	38.8	2
0	23843	38.8	2
0	23844	38.8	2
0	23845	38.8	2
0	23846	38.8	2
0	23847	38.8	2
0	23848	38.8	2
0	23849	38.8	2
0	23866	38.85	2
0	23867	38.85	2
0	23868	38.85	2
0	23869	38.85	2
0	23891	38.9	2
0	23892	38.9	2
0	23893	38.9	2
0	23894	38.9	2
0	23895	38.9	2
0	23896	38.9	2
0	23897	38.9	2
0	23898	38.9	2
0	23937	38.95	2
0	23938	38.95	2
0	23939	38.95	2
0	23940	38.95	2
0	23949	39	2
0	23950	39	2
0	23951	39	2
0	23952	39	2
0	23953	39	2
0	23954	39	2
0	23955	39	2
0	23956	39	2
0	23973	39.05	2
0	23974	39.05	2
0	23975	39.05	2
0	23976	39.05	2
0	23985	39.1	2
0	23986	39.1	2
0	23987	39.1	2
0	23988	39.1	2
0	23989	39.1	2
0	23990	39.1	2
0	23991	39.1	2
0	23992	39.1	2
0	24009	39.15	2
0	24010	39.15	2
0	24011	39.15	2
0	24012	39.15	2
0	24021	39.2	2
0	24022	39.2	2
0	24023	39.2	2
0	24024	39.2	2
0	24025	39.2	2
0	24026	39.2	2
0	24027	39.2	2
0	24028	39.2	2
0	24045	39.25	2
0	24046	39.25	2
0	24047	39.25	2
0	24048	39.25	2
0	24063	39.3	2
0	24064	39.3	2
0	24065	39.3	2
0	24066	39.3	2
0	24067	39.3	2
0	24068	39.3	2
0	24069	39.3	2
0	24070	39.3	2
0	24113	39.35	2
0	24114	39.35	2
0	24115	39.35	2
0	24116	39.35	2
0	24125	39.4	2
0	24126	39.4	2
0	24127	39.4	2
0	24128	39.4	2
0	24129	39.4	2
0	24130	39.4	2
0	24131	39.4	2
0	24132	39.4	2
0	24149	39.45	2
0	24150	39.45	2
0	24151	39.45	2
0	24152	39.45	2
0	24167	39.5	2
0	24168	39.5	2
0	24169	39.5	2
0	24170	39.5	2
0	24171	39.5	2
0	24172	39.5	2
0	24173	39.5	2
0	24174	39.5	2
0	24191	39.55	2
0	24192	39.55	2
0	24193	39.55	2
0	24194	39.55	2
0	24203	39.6	2
0	24204	39.6	2
0	24205	39.6	2
0	24206	39.6	2
0	24207	39.6	2
0	24208	39.6	2
0	24209	39.6	2
0	24210	39.6	2
0	24227	39.65	2
0	24228	39.65	2
0	24229	39.65	2
0	24230	39.65	2
0	24242	39.7	2
0	24243	39.7	2
0	24244	39.7	2
0	24245	39.7	2
0	24246	39.7	2
0	24247	39.7	2
0	24248	39.7	2
0	24249	39.7	2
0	24266	39.75	2
0	24267	39.75	2
0	24268	39.75	2
0	24269	39.75	2
0	24278	39.8	2
0	24279	39.8	2
0	24280	39.8	2
0	24281	39.8	2
0	24282	39.8	2
0	24283	39.8	2
0	24284	39.8	2
0	24285	39.8	2
0	24302	39.85	2
0	24303	39.85	2
0	24304	39.85	2
0	24305	39.85	2
0	24314	39.9	2
0	24315	39.9	2
0	24316	39.9	2
0	24317	39.9	2
0	24318	39.9	2
0	24319	39.9	2
0	24320	39.9	2
0	24321	39.9	2
0	24338	39.95	2
0	24339	39.95	2
0	24340	39.95	2
0	24341	39.95	2
0	24350	40	2
0	24351	40	2
0	24352	40	2
0	24353	40	2
0	24354	40	2
0	24355	40	2
0	24356	40	2
0	24357	40	2
0	24374	40.05	2
0	24375	40.05	2
0	24376	40.05	2
0	24377	40.05	2
0	24386	40.1	2
0	24387	40.1	2
0	24388	40.1	2
0	24389	40.1	2
0	24390	40.1	2
0	24391	40.1	2
0	24392	40.1	2
0	24393	40.1	2
0	24410	40.15	2
0	24411	40.15	2
0	24412	40.15	2
0	24413	40.15	2
0	24422	40.2	2
0	24423	40.2	2
0	24424	40.2	2
0	24425	40.2	2
0	24426	40.2	2
0	24427	40.2	2
0	24428	40.2	2
0	24429	40.2	2
0	24446	40.25	2
0	24447	40.25	2
0	24448	40.25	2
0	24449	40.25	2
0	24458	40.3	2
0	24459	40.3	2
0	24460	40.3	2
0	24461	40.3	2
0	24462	40.3	2
0	24463	40.3	2
0	24464	40.3	2
0	24465	40.3	2
0	24482	40.35	2
0	24483	40.35	2
0	24484	40.35	2
0	24485	40.35	2
0	24494	40.4	2
0	24495	40.4	2
0	24496	40.4	2
0	24497	40.4	2
0	24498	40.4	2
0	24499	40.4	2
0	24500	40.4	2
0	24501	40.4	2
0	24518	40.45	2
0	24519	40.45	2
0	24520	40.45	2
0	24521	40.45	2
0	24533	40.5	2
0	24534	40.5	2
0	24535	40.5	2
0	24536	40.5	2
0	24537	40.5	2
0	24538	40.5	2
0	24539	40.5	2
0	24540	40.5	2
0	24557	40.55	2
0	24558	40.55	2
0	24559	40.55	2
0	24560	40.55	2
0	24569	40.6	2
0	24570	40.6	2
0	24571	40.6	2
0	24572	40.6	2
0	24573	40.6	2
0	24574	40.6	2
0	24575	40.6	2
0	24576	40.6	2
0	24593	40.65	2
0	24594	40.65	2
0	24595	40.65	2
0	24596	40.65	2
0	24605	40.7	2
0	24606	40.7	2
0	24607	40.7	2
0	24608	40.7	2
0	24609	40.7	2
0	24610	40.7	2
0	24611	40.7	2
0	24612	40.7	2
0	24629	40.75	2
0	24630	40.75	2
0	24631	40.75	2
0	24632	40.75	2
0	24641	40.8	2
0	24642	40.8	2
0	24643	40.8	2
0	24644	40.8	2
0	24645	40.8	2
0	24646	40.8	2
0	24647	40.8	2
0	24648	40.8	2
0	24665	40.85	2
0	24666	40.85	2
0	24667	40.85	2
0	24668	40.85	2
0	24715	40.9	2
0	24716	40.9	2
0	24717	40.9	2
0	24718	40.9	2
0	24719	40.9	2
0	24720	40.9	2
0	24721	40.9	2
0	24722	40.9	2
0	24759	40.95	2
0	24760	40.95	2
0	24761	40.95	2
0	24762	40.95	2
0	24771	41	2
0	24772	41	2
0	24773	41	2
0	24774	41	2
0	24775	41	2
0	24776	41	2
0	24777	41	2
0	24778	41	2
0	24811	41.05	2
0	24812	41.05	2
0	24813	41.05	2
0	24814	41.05	2
0	24855	41.1	2
0	24856	41.1	2
0	24857	41.1	2
0	24858	41.1	2
0	24859	41.1	2
0	24860	41.1	2
0	24861	41.1	2
0	24862	41.1	2
0	24879	41.15	2
0	24880	41.15	2
0	24881	41.15	2
0	24882	41.15	2
0	24891	41.2	2
0	24892	41.2	2
0	24893	41.2	2
0	24894	41.2	2
0	24895	41.2	2
0	24896	41.2	2
0	24897	41.2	2
0	24898	41.2	2
0	24915	41.25	2
0	24916	41.25	2
0	24917	41.25	2
0	24918	41.25	2
0	24927	41.3	2
0	24928	41.3	2
0	24929	41.3	2
0	24930	41.3	2
0	24931	41.3	2
0	24932	41.3	2
0	24933	41.3	2
0	24934	41.3	2
0	24951	41.35	2
0	24952	41.35	2
0	24953	41.35	2
0	24954	41.35	2
0	24963	41.4	2
0	24964	41.4	2
0	24965	41.4	2
0	24966	41.4	2
0	24967	41.4	2
0	24968	41.4	2
0	24969	41.4	2
0	24970	41.4	2
0	25000	41.45	2
0	25001	41.45	2
0	25002	41.45	2
0	25003	41.45	2
0	25028	41.5	2
0	25029	41.5	2
0	25030	41.5	2
0	25031	41.5	2
0	25032	41.5	2
0	25033	41.5	2
0	25034	41.5	2
0	25035	41.5	2
0	25052	41.55	2
0	25053	41.55	2
0	25054	41.55	2
0	25055	41.55	2
0	25077	41.6	2
0	25078	41.6	2
0	25079	41.6	2
0	25080	41.6	2
0	25081	41.6	2
0	25082	41.6	2
0	25083	41.6	2
0	25084	41.6	2
0	25117	41.65	2
0	25118	41.65	2
0	25119	41.65	2
0	25120	41.65	2
0	25129	41.7	2
0	25130	41.7	2
0	25131	41.7	2
0	25132	41.7	2
0	25133	41.7	2
0	25134	41.7	2
0	25135	41.7	2
0	25136	41.7	2
0	25153	41.75	2
0	25154	41.75	2
0	25155	41.75	2
0	25156	41.75	2
0	25165	41.8	2
0	25166	41.8	2
0	25167	41.8	2
0	25168	41.8	2
0	25169	41.8	2
0	25170	41.8	2
0	25171	41.8	2
0	25172	41.8	2
0	25189	41.85	2
0	25190	41.85	2
0	25191	41.85	2
0	25192	41.85	2
0	25201	41.9	2
0	25202	41.9	2
0	25203	41.9	2
0	25204	41.9	2
0	25205	41.9	2
0	25206	41.9	2
0	25207	41.9	2
0	25208	41.9	2
0	25225	41.95	2
0	25226	41.95	2
0	25227	41.95	2
0	25228	41.95	2
0	25250	42	2
0	25251	42	2
0	25252	42	2
0	25253	42	2
0	25254	42	2
0	25255	42	2
0	25256	42	2
0	25257	42	2
0	25284	42.05	2
0	25285	42.05	2
0	25286	42.05	2
0	25287	42.05	2
0	25296	42.1	2
0	25297	42.1	2
0	25298	42.1	2
0	25299	42.1	2
0	25300	42.1	2
0	25301	42.1	2
0	25302	42.1	2
0	25303	42.1	2
0	25330	42.15	2
0	25331	42.15	2
0	25332	42.15	2
0	25333	42.15	2
0	25345	42.2	2
0	25346	42.2	2
0	25347	42.2	2
0	25348	42.2	2
0	25349	42.2	2
0	25350	42.2	2
0	25351	42.2	2
0	25352	42.2	2
0	25369	42.25	2
0	25370	42.25	2
0	25371	42.25	2
0	25372	42.25	2
0	25381	42.3	2
0	25382	42.3	2
0	25383	42.3	2
0	25384	42.3	2
0	25385	42.3	2
0	25386	42.3	2
0	25387	42.3	2
0	25388	42.3	2
0	25405	42.35	2
0	25406	42.35	2
0	25407	42.35	2
0	25408	42.35	2
0	25417	42.4	2
0	25418	42.4	2
0	25419	42.4	2
0	25420	42.4	2
0	25421	42.4	2
0	25422	42.4	2
0	25423	42.4	2
0	25424	42.4	2
0	25441	42.45	2
0	25442	42.45	2
0	25443	42.45	2
0	25444	42.45	2
0	25466	42.5	2
0	25467	42.5	2
0	25468	42.5	2
0	25469	42.5	2
0	25470	42.5	2
0	25471	42.5	2
0	25472	42.5	2
0	25473	42.5	2
0	25503	42.55	2
0	25504	42.55	2
0	25505	42.55	2
0	25506	42.55	2
0	25515	42.6	2
0	25516	42.6	2
0	25517	42.6	2
0	25518	42.6	2
0	25519	42.6	2
0	25520	42.6	2
0	25521	42.6	2
0	25522	42.6	2
0	25542	42.65	2
0	25543	42.65	2
0	25544	42.65	2
0	25545	42.65	2
0	25577	42.7	2
0	25578	42.7	2
0	25579	42.7	2
0	25580	42.7	2
0	25581	42.7	2
0	25582	42.7	2
0	25583	42.7	2
0	25584	42.7	2
0	25601	42.75	2
0	25602	42.75	2
0	25603	42.75	2
0	25604	42.75	2
0	25613	42.8	2
0	25614	42.8	2
0	25615	42.8	2
0	25616	42.8	2
0	25617	42.8	2
0	25618	42.8	2
0	25619	42.8	2
0	25620	42.8	2
0	25650	42.85	2
0	25651	42.85	2
0	25652	42.85	2
0	25653	42.85	2
0	25662	42.9	2
0	25663	42.9	2
0	25664	42.9	2
0	25665	42.9	2
0	25666	42.9	2
0	25667	42.9	2
0	25668	42.9	2
0	25669	42.9	2
0	25686	42.95	2
0	25687	42.95	2
0	25688	42.95	2
0	25689	42.95	2
0	25698	43	2
0	25699	43	2
0	25700	43	2
0	25701	43	2
0	25702	43	2
0	25703	43	2
0	25704	43	2
0	25705	43	2
0	25722	43.05	2
0	25723	43.05	2
0	25724	43.05	2
0	25725	43.05	2
0	25737	43.1	2
0	25738	43.1	2
0	25739	43.1	2
0	25740	43.1	2
0	25741	43.1	2
0	25742	43.1	2
0	25743	43.1	2
0	25744	43.1	2
0	25761	43.15	2
0	25762	43.15	2
0	25763	43.15	2
0	25764	43.15	2
0	25773	43.2	2
0	25774	43.2	2
0	25775	43.2	2
0	25776	43.2	2
0	25777	43.2	2
0	25778	43.2	2
0	25779	43.2	2
0	25780	43.2	2
0	25807	43.25	2
0	25808	43.25	2
0	25809	43.25	2
0	25810	43.25	2
0	25819	43.3	2
0	25820	43.3	2
0	25821	43.3	2
0	25822	43.3	2
0	25823	43.3	2
0	25824	43.3	2
0	25825	43.3	2
0	25826	43.3	2
0	25843	43.35	2
0	25844	43.35	2
0	25845	43.35	2
0	25846	43.35	2
0	25858	43.4	2
0	25859	43.4	2
0	25860	43.4	2
0	25861	43.4	2
0	25862	43.4	2
0	25863	43.4	2
0	25864	43.4	2
0	25865	43.4	2
0	25882	43.45	2
0	25883	43.45	2
0	25884	43.45	2
0	25885	43.45	2
0	25894	43.5	2
0	25895	43.5	2
0	25896	43.5	2
0	25897	43.5	2
0	25898	43.5	2
0	25899	43.5	2
0	25900	43.5	2
0	25901	43.5	2
0	25918	43.55	2
0	25919	43.55	2
0	25920	43.55	2
0	25921	43.55	2
0	25930	43.6	2
0	25931	43.6	2
0	25932	43.6	2
0	25933	43.6	2
0	25934	43.6	2
0	25935	43.6	2
0	25936	43.6	2
0	25937	43.6	2
0	25967	43.65	2
0	25968	43.65	2
0	25969	43.65	2
0	25970	43.65	2
0	25979	43.7	2
0	25980	43.7	2
0	25981	43.7	2
0	25982	43.7	2
0	25983	43.7	2
0	25984	43.7	2
0	25985	43.7	2
0	25986	43.7	2
0	26003	43.75	2
0	26004	43.75	2
0	26005	43.75	2
0	26006	43.75	2
0	26028	43.8	2
0	26029	43.8	2
0	26030	43.8	2
0	26031	43.8	2
0	26032	43.8	2
0	26033	43.8	2
0	26034	43.8	2
0	26035	43.8	2
0	26052	43.85	2
0	26053	43.85	2
0	26054	43.85	2
0	26055	43.85	2
0	26064	43.9	2
0	26065	43.9	2
0	26066	43.9	2
0	26067	43.9	2
0	26068	43.9	2
0	26069	43.9	2
0	26070	43.9	2
0	26071	43.9	2
0	26088	43.95	2
[...]
2	16041	23.897950839471	61899
2	16078	23.911790839471	62040
2	16089	23.925630839471	62181
2	16099	23.934110839471	62322
2	16109	23.939470839471	62463
2	16119	23.947950839471	62604
2	16140	23.953310839471	62745
2	16153	23.961790839471	62886
2	16164	23.967150839471	63027
2	16174	23.975630839471	63168
2	16184	23.980990839471	63309
2	16191	23.989470839471	63450
2	16198	23.994830839471	63591
2	16230	24.008670839471	63732
2	16240	24.017150839471	63873
2	16250	24.022510839471	64014
2	16257	24.030990839471	64155
2	16278	24.050190839471	64296
2	16290	24.091710839471	64437
2	16324	24.105550839471	64578
2	16332	24.133230839471	64719
2	16339	24.147070839471	64860
2	16358	24.160910839471	65001
2	16500	24.378750839471	65142
2	16507	24.392590839471	65283
2	16541	24.406430839471	65424
2	16551	24.420270839471	65565
2	16561	24.434110839471	65706
2	16571	24.447950839471	65847
2	16596	24.461790839471	65988
2	16634	24.503310839471	66129
2	16648	24.517150839471	66270
2	16658	24.530990839471	66411
2	16668	24.544830839471	66552
2	16690	24.558670839471	66693
2	16697	24.572510839471	66834
2	16946	24.978750839471	66975
2	16978	25.006430839471	67116
2	16987	25.047950839471	67257
2	17009	25.061790839471	67398
2	17017	25.089470839471	67539
2	17052	25.117150839471	67680
2	17063	25.144830839471	67821
2	17083	25.172510839471	67962
2	17118	25.200190839471	68103
2	17129	25.227870839471	68244
2	17136	25.241710839471	68385
2	17159	25.269390839471	68526
2	17170	25.297070839471	68667
2	17204	25.310910839471	68808
2	17214	25.324750839471	68949
2	17221	25.338590839471	69090
2	17245	25.352430839471	69231
2	17262	25.366270839471	69372
2	17273	25.393950839471	69513
2	17304	25.407790839471	69654
2	17314	25.421630839471	69795
2	17602	26.042590839471	69936
2	17626	26.056430839471	70077
2	17634	26.084110839471	70218
2	17641	26.097950839471	70359
2	17678	26.111790839471	70500
2	17870	26.542590839471	70641
2	17914	26.570270839471	70782
2	17924	26.578750839471	70923
2	17931	26.584110839471	71064
2	17941	26.592590839471	71205
2	17976	26.620270839471	71346
2	18516	27.678750839471	71487
2	18526	27.692590839471	71628
2	18558	27.720270839471	71769
2	18566	27.747950839471	71910
2	18585	27.761790839471	72051
2	18595	27.775630839471	72192
2	18605	27.789470839471	72333
2	18640	27.817150839471	72474
2	18651	27.844830839471	72615
2	18671	27.872510839471	72756
2	18706	27.900190839471	72897
2	18716	27.914030839471	73038
2	18726	27.927870839471	73179
2	18750	27.969390839471	73320
2	18760	27.983230839471	73461
2	18770	27.997070839471	73602
2	18811	28.015648193702	73743
2	18818	28.029488193702	73884
2	18825	28.043328193702	74025
2	19373	29.278750839471	74166
2	19409	29.306430839471	74307
2	19418	29.347950839471	74448
2	19440	29.361790839471	74589
2	19447	29.375630839471	74730
2	19492	29.417150839471	74871
2	19503	29.444830839471	75012
2	20352	31.428750839471	75153
2	20582	31.978750839471	75294
2	20695	32.178750839471	75435
2	20705	32.192590839471	75576
2	21020	32.792590839471	75717
2	21052	32.820270839471	75858
2	21059	32.834110839471	75999
2	21069	32.847950839471	76140
2	21092	32.875630839471	76281
2	21099	32.889470839471	76422
2	22007	34.928750839471	76563
2	22017	34.942590839471	76704
2	22039	34.956430839471	76845
2	22049	34.970270839471	76986
2	22056	34.984110839471	77127
2	22063	34.997950839471	77268
2	22098	35.025630839471	77409
2	22754	36.528750839471	77550
2	22764	36.542590839471	77691
2	22785	36.556430839471	77832
2	23047	37.078750839471	77973
2	23933	38.928750839471	78114
2	24708	40.878750839471	78255
2	24851	41.078750839471	78396
2	26936	45.928750839471	78537
2	27330	46.778750839471	78678
2	29958	52.978750839471	78819
2	33830	61.778750839471	78960
2	34508	63.378750839471	79101
2	36363	67.578750839471	79242
3	1358	1.842590839471	141
3	1382	1.884110839471	282
3	1389	1.897950839471	423
3	1423	1.911790839471	564
3	1430	1.925630839471	705
3	1440	1.939470839471	846
3	1462	1.953310839471	987
3	1471	1.994830839471	1128
3	1505	2.008670839471	1269
3	1516	2.036350839471	1410
3	1539	2.064030839471	1551
3	1546	2.077870839471	1692
3	1581	2.105550839471	1833
3	1593	2.147070839471	1974
3	1612	2.160910839471	2115
3	1649	2.202430839471	2256
3	1671	2.216270839471	2397
3	1681	2.230110839471	2538
3	1691	2.243950839471	2679
3	1715	2.285470839471	2820
3	1750	2.313150839471	2961
3	1760	2.326990839471	3102
3	1785	2.354670839471	3243
3	1795	2.396190839471	3384
3	1829	2.410030839471	3525
3	1836	2.423870839471	3666
3	1860	2.465390839471	3807
3	1870	2.479230839471	3948
3	1902	2.506910839471	4089
3	1910	2.534590839471	4230
3	1930	2.562270839471	4371
3	1937	2.576110839471	4512
3	1972	2.603790839471	4653
3	1982	2.617630839471	4794
3	1990	2.645310839471	4935
3	2013	2.672990839471	5076
3	2023	2.686830839471	5217
3	2065	2.700670839471	5358
3	2082	2.728350839471	5499
3	2105	2.756030839471	5640
3	2112	2.769870839471	5781
3	2119	2.783710839471	5922
3	2154	2.811390839471	6063
3	2164	2.825230839471	6204
3	2171	2.839070839471	6345
3	2193	2.852910839471	6486
3	2205	2.894430839471	6627
3	2239	2.908270839471	6768
3	2250	2.935950839471	6909
3	2260	2.949790839471	7050
3	2282	2.963630839471	7191
3	2292	2.977470839471	7332
3	2324	3.005150839471	7473
3	2334	3.018990839471	7614
3	2345	3.046670839471	7755
3	2367	3.060510839471	7896
3	2377	3.074350839471	8037
3	2384	3.088190839471	8178
3	2419	3.115870839471	8319
3	2429	3.129710839471	8460
3	2439	3.143550839471	8601
3	2461	3.157390839471	8742
3	2472	3.185070839471	8883
3	2479	3.198910839471	9024
3	2957	3.992590839471	9165
3	2991	4.006430839471	9306
3	3001	4.020270839471	9447
3	3011	4.034110839471	9588
3	3021	4.047950839471	9729
3	3045	4.089470839471	9870
3	3089	4.117150839471	10011
3	3112	4.186350839471	10152
3	3147	4.214030839471	10293
3	3157	4.227870839471	10434
3	3178	4.269390839471	10575
3	3189	4.297070839471	10716
3	3250	4.310910839471	10857
3	3265	4.324750839471	10998
3	3272	4.338590839471	11139
3	3296	4.352430839471	11280
3	3317	4.366270839471	11421
3	3328	4.393950839471	11562
3	3362	4.407790839471	11703
3	3372	4.421630839471	11844
3	3382	4.435470839471	11985
3	3392	4.449310839471	12126
3	3415	4.463150839471	12267
3	3425	4.476990839471	12408
3	3435	4.490830839471	12549
3	3471	4.504670839471	12690
3	3483	4.532350839471	12831
3	3504	4.573870839471	12972
3	3511	4.587710839471	13113
3	3546	4.615390839471	13254
3	3572	4.684590839471	13395
3	3579	4.698430839471	13536
3	3612	4.739950839471	13677
3	3847	5.078750839471	13818
3	3854	5.092590839471	13959
3	3885	5.106430839471	14100
3	3896	5.134110839471	14241
3	3906	5.147950839471	14382
3	3928	5.161790839471	14523
3	3935	5.175630839471	14664
3	3945	5.189470839471	14805
3	3976	5.203310839471	14946
3	3986	5.217150839471	15087
3	3993	5.230990839471	15228
3	4003	5.244830839471	15369
3	4025	5.258670839471	15510
3	4032	5.272510839471	15651
3	4042	5.286350839471	15792
3	4077	5.314030839471	15933
3	4087	5.327870839471	16074
3	4112	5.383230839471	16215
3	4146	5.438590839471	16356
3	4179	5.480110839471	16497
3	4848	6.520270839471	16638
3	4858	6.534110839471	16779
3	4883	6.589470839471	16920
3	4927	6.617150839471	17061
3	4937	6.630990839471	17202
3	4947	6.644830839471	17343
3	4969	6.658670839471	17484
3	4979	6.672510839471	17625
3	4986	6.686350839471	17766
3	5021	6.714030839471	17907
3	5029	6.741710839471	18048
3	5052	6.769390839471	18189
3	5062	6.783230839471	18330
3	5072	6.797070839471	18471
3	5106	6.810910839471	18612
3	5117	6.838590839471	18753
3	5136	6.852430839471	18894
3	5143	6.866270839471	19035
3	5153	6.880110839471	19176
3	5185	6.907790839471	19317
3	5192	6.921630839471	19458
3	5202	6.935470839471	19599
3	5209	6.949310839471	19740
3	5229	6.976990839471	19881
3	5270	7.018510839471	20022
3	5280	7.032350839471	20163
3	5290	7.046190839471	20304
3	5321	7.060030839471	20445
3	5335	7.073870839471	20586
3	5345	7.087710839471	20727
3	5382	7.143070839471	20868
3	5404	7.156910839471	21009
3	5414	7.170750839471	21150
3	5425	7.198430839471	21291
3	5468	7.212270839471	21432
3	5482	7.226110839471	21573
3	5489	7.239950839471	21714
3	5511	7.253790839471	21855
3	5521	7.267630839471	21996
3	5532	7.295310839471	22137
3	5566	7.309150839471	22278
3	5573	7.322990839471	22419
3	5596	7.350670839471	22560
3	5631	7.419870839471	22701
3	5641	7.433710839471	22842
3	5661	7.461390839471	22983
3	5672	7.489070839471	23124
3	5706	7.502910839471	23265
3	5716	7.516750839471	23406
3	5726	7.530590839471	23547
3	5749	7.558270839471	23688
3	5756	7.572110839471	23829
3	5803	7.627470839471	23970
3	5813	7.641310839471	24111
3	5832	7.655150839471	24252
3	5842	7.668990839471	24393
3	5849	7.682830839471	24534
3	5859	7.696670839471	24675
3	5899	7.710510839471	24816
3	5906	7.724350839471	24957
3	5931	7.752030839471	25098
3	5943	7.779710839471	25239
3	5950	7.793550839471	25380
3	5984	7.807390839471	25521
3	5991	7.821230839471	25662
3	6001	7.835070839471	25803
3	6008	7.848910839471	25944
3	6793	9.478750839471	26085
3	6803	9.492590839471	26226
3	6837	9.506430839471	26367
3	6847	9.520270839471	26508
3	6857	9.534110839471	26649
3	6877	9.561790839471	26790
3	6884	9.575630839471	26931
3	6916	9.603310839471	27072
3	6923	9.617150839471	27213
3	6934	9.644830839471	27354
3	6956	9.658670839471	27495
3	6966	9.672510839471	27636
3	7002	9.714030839471	27777
3	7026	9.755550839471	27918
3	7034	9.783230839471	28059
3	7069	9.810910839471	28200
3	7095	9.852430839471	28341
3	7140	9.921630839471	28482
3	7150	9.935470839471	28623
3	7174	9.976990839471	28764
3	7184	9.990830839471	28905
3	7220	10.004670839471	29046
3	7230	10.018510839471	29187
3	7241	10.046190839471	29328
3	7260	10.060030839471	29469
3	7270	10.073870839471	29610
3	7280	10.087710839471	29751
3	7311	10.101550839471	29892
3	7322	10.129230839471	30033
3	7345	10.156910839471	30174
3	7393	10.212270839471	30315
3	7401	10.226110839471	30456
3	7581	10.428750839471	30597
3	7591	10.442590839471	30738
3	7613	10.456430839471	30879
3	7621	10.484110839471	31020
3	7658	10.539470839471	31161
3	7691	10.567150839471	31302
3	7727	10.608670839471	31443
3	7735	10.636350839471	31584
3	7758	10.664030839471	31725
3	8277	11.692590839471	31866
3	8312	11.720270839471	32007
3	8323	11.747950839471	32148
3	8345	11.761790839471	32289
3	8355	11.775630839471	32430
3	8390	11.803310839471	32571
3	8400	11.817150839471	32712
3	8407	11.830990839471	32853
3	8432	11.886350839471	32994
3	8466	11.900190839471	33135
3	8477	11.927870839471	33276
3	8484	11.941710839471	33417
3	8505	11.955550839471	33558
3	8523	11.969390839471	33699
3	8562	12.010910839471	33840
3	8572	12.024750839471	33981
3	8597	12.052430839471	34122
3	8614	12.066270839471	34263
3	8622	12.093950839471	34404
3	8657	12.121630839471	34545
3	8667	12.135470839471	34686
3	8688	12.176990839471	34827
3	8698	12.190830839471	34968
3	8734	12.204670839471	35109
3	8741	12.218510839471	35250
3	8823	12.26545129477	35391
3	8833	12.27929129477	35532
3	8843	12.29313129477	35673
3	8875	12.32081129477	35814
3	8882	12.33465129477	35955
3	8892	12.34849129477	36096
3	8913	12.36233129477	36237
3	8923	12.37617129477	36378
3	8960	12.40385129477	36519
3	8981	12.41769129477	36660
3	8991	12.43153129477	36801
3	9012	12.47305129477	36942
3	9022	12.48689129477	37083
3	9056	12.50073129477	37224
3	9066	12.51457129477	37365
3	9076	12.52841129477	37506
3	9083	12.54225129477	37647
3	9704	13.728750839471	37788
3	9714	13.742590839471	37929
3	9736	13.756430839471	38070
3	9747	13.784110839471	38211
3	9791	13.811790839471	38352
3	9798	13.825630839471	38493
3	9805	13.839470839471	38634
3	9828	13.867150839471	38775
3	9838	13.880990839471	38916
3	9870	13.908670839471	39057
3	9878	13.936350839471	39198
3	9904	13.950190839471	39339
3	9924	13.991710839471	39480
3	9958	14.005550839471	39621
3	9967	14.047070839471	39762
3	9986	14.060910839471	39903
3	9996	14.074750839471	40044
3	10003	14.088590839471	40185
3	10038	14.102430839471	40326
3	10082	14.116270839471	40467
3	10094	14.142590839471	40608
3	10115	14.157790839471	40749
3	10122	14.170270839471	40890
3	10134	14.185470839471	41031
3	10144	14.197950839471	41172
3	10150	14.199310839471	41313
3	10188	14.226990839471	41454
3	10196	14.240830839471	41595
3	10215	14.253310839471	41736
3	10221	14.254670839471	41877
3	10232	14.267150839471	42018
3	10238	14.268510839471	42159
3	10249	14.282350839471	42300
3	10259	14.296190839471	42441
3	10293	14.310030839471	42582
3	10304	14.337710839471	42723
3	10326	14.351550839471	42864
3	10333	14.365390839471	43005
3	10344	14.393070839471	43146
3	10378	14.406910839471	43287
3	10389	14.434590839471	43428
3	10412	14.462270839471	43569
3	10450	14.503790839471	43710
3	10471	14.517630839471	43851
3	10479	14.545310839471	43992
3	11442	16.828750839471	44133
3	11467	16.884110839471	44274
3	11499	16.911790839471	44415
3	11509	16.925630839471	44556
3	11837	17.478750839471	44697
3	11844	17.492590839471	44838
3	11878	17.506430839471	44979
3	11889	17.534110839471	45120
3	11899	17.547950839471	45261
3	11921	17.561790839471	45402
3	11929	17.589470839471	45543
3	11964	17.617150839471	45684
3	11974	17.630990839471	45825
3	11999	17.658670839471	45966
3	12007	17.686350839471	46107
3	12041	17.700190839471	46248
3	12068	17.755550839471	46389
3	12080	17.783230839471	46530
3	12090	17.797070839471	46671
3	12121	17.810910839471	46812
3	12132	17.838590839471	46953
3	12156	17.852430839471	47094
3	12174	17.880110839471	47235
3	12181	17.893950839471	47376
3	12217	17.907790839471	47517
3	12225	17.921630839471	47658
3	12235	17.935470839471	47799
3	12242	17.949310839471	47940
3	12261	17.963150839471	48081
3	12271	17.976990839471	48222
3	12281	17.990830839471	48363
3	13086	19.528750839471	48504
3	13106	19.556430839471	48645
3	13117	19.584110839471	48786
3	13127	19.597950839471	48927
3	13161	19.611790839471	49068
3	13171	19.625630839471	49209
3	13195	19.667150839471	49350
3	13202	19.680990839471	49491
3	13237	19.708670839471	49632
3	13244	19.722510839471	49773
3	13254	19.736350839471	49914
3	13277	19.764030839471	50055
3	13287	19.777870839471	50196
3	13297	19.791710839471	50337
3	13328	19.805550839471	50478
3	13335	19.819390839471	50619
3	13359	19.860910839471	50760
3	13369	19.874750839471	50901
3	13379	19.888590839471	51042
3	13430	19.916270839471	51183
3	13437	19.930110839471	51324
3	13460	19.957790839471	51465
3	13471	19.985470839471	51606
3	13481	19.999310839471	51747
3	13583	20.068510839471	51888
3	13595	20.092590839471	52029
3	13605	20.096190839471	52170
3	13643	20.134110839471	52311
3	13653	20.137710839471	52452
3	13663	20.147950839471	52593
3	13684	20.151550839471	52734
3	13694	20.161790839471	52875
3	13705	20.175630839471	53016
3	13715	20.179230839471	53157
3	13722	20.189470839471	53298
3	13754	20.203310839471	53439
3	13764	20.206910839471	53580
3	13774	20.217150839471	53721
3	13781	20.220750839471	53862
3	13791	20.230990839471	54003
3	13802	20.244830839471	54144
3	13809	20.248430839471	54285
3	13828	20.258670839471	54426
3	13835	20.262270839471	54567
3	13843	20.276110839471	54708
3	13851	20.289950839471	54849
3	13882	20.300190839471	54990
3	13890	20.314030839471	55131
3	13897	20.317630839471	55272
3	13904	20.327870839471	55413
3	13914	20.331470839471	55554
3	13935	20.359150839471	55695
3	13942	20.372990839471	55836
3	13952	20.386830839471	55977
3	13986	20.400670839471	56118
3	13993	20.414510839471	56259
3	14003	20.428350839471	56400
3	14025	20.456030839471	56541
3	14043	20.469870839471	56682
3	14051	20.497550839471	56823
3	14085	20.511390839471	56964
3	14095	20.525230839471	57105
3	14105	20.539070839471	57246
3	15003	22.242590839471	57387
3	15027	22.256430839471	57528
3	15038	22.270270839471	57669
3	15049	22.297950839471	57810
3	15107	22.353310839471	57951
3	15115	22.380990839471	58092
3	15125	22.394830839471	58233
3	15156	22.408670839471	58374
3	15166	22.422510839471	58515
3	15173	22.436350839471	58656
3	15195	22.450190839471	58797
3	15206	22.477870839471	58938
3	15213	22.491710839471	59079
3	15247	22.505550839471	59220
3	15258	22.533230839471	59361
3	15268	22.547070839471	59502
3	15290	22.560910839471	59643
3	15300	22.574750839471	59784
3	15337	22.602430839471	59925
3	15363	22.657790839471	60066
3	15374	22.685470839471	60207
3	15381	22.699310839471	60348
3	15417	22.713150839471	60489
3	15438	22.754670839471	60630
3	15449	22.782350839471	60771
3	15484	22.810030839471	60912
3	15494	22.823870839471	61053
3	15946	23.828750839471	61194
3	16007	23.870270839471	61335
3	16017	23.878750839471	61476
3	16027	23.884110839471	61617
3	16034	23.892590839471	61758
3	16041	23.897950839471	61899
3	16078	23.911790839471	62040
3	16089	23.925630839471	62181
3	16099	23.934110839471	62322
3	16109	23.939470839471	62463
3	16119	23.947950839471	62604
3	16140	23.953310839471	62745
3	16153	23.961790839471	62886
3	16164	23.967150839471	63027
3	16174	23.975630839471	63168
3	16184	23.980990839471	63309
3	16191	23.989470839471	63450
3	16198	23.994830839471	63591
3	16230	24.008670839471	63732
3	16240	24.017150839471	63873
3	16250	24.022510839471	64014
3	16257	24.030990839471	64155
3	16278	24.050190839471	64296
3	16290	24.091710839471	64437
3	16324	24.105550839471	64578
3	16332	24.133230839471	64719
3	16339	24.147070839471	64860
3	16358	24.160910839471	65001
3	16500	24.378750839471	65142
3	16507	24.392590839471	65283
3	16541	24.406430839471	65424
3	16551	24.420270839471	65565
3	16561	24.434110839471	65706
3	16571	24.447950839471	65847
3	16596	24.461790839471	65988
3	16634	24.503310839471	66129
3	16648	24.517150839471	66270
3	16658	24.530990839471	66411
3	16668	24.544830839471	66552
3	16690	24.558670839471	66693
3	16697	24.572510839471	66834
3	16946	24.978750839471	66975
3	16978	25.006430839471	67116
3	16987	25.047950839471	67257
3	17009	25.061790839471	67398
3	17017	25.089470839471	67539
3	17052	25.117150839471	67680
3	17063	25.144830839471	67821
3	17083	25.172510839471	67962
3	17118	25.200190839471	68103
3	17129	25.227870839471	68244
3	17136	25.241710839471	68385
3	17159	25.269390839471	68526
3	17170	25.297070839471	68667
3	17204	25.310910839471	68808
3	17214	25.324750839471	68949
3	17221	25.338590839471	69090
3	17245	25.352430839471	69231
3	17262	25.366270839471	69372
3	17273	25.393950839471	69513
3	17304	25.407790839471	69654
3	17314	25.421630839471	69795
3	17602	26.042590839471	69936
3	17626	26.056430839471	70077
3	17634	26.084110839471	70218
3	17641	26.097950839471	70359
3	17678	26.111790839471	70500
3	17870	26.542590839471	70641
3	17914	26.570270839471	70782
3	17924	26.578750839471	70923
3	17931	26.584110839471	71064
3	17941	26.592590839471	71205
3	17976	26.620270839471	71346
3	18516	27.678750839471	71487
3	18526	27.692590839471	71628
3	18558	27.720270839471	71769
3	18566	27.747950839471	71910
3	18585	27.761790839471	72051
3	18595	27.775630839471	72192
3	18605	27.789470839471	72333
3	18640	27.817150839471	72474
3	18651	27.844830839471	72615
3	18671	27.872510839471	72756
3	18706	27.900190839471	72897
3	18716	27.914030839471	73038
3	18726	27.927870839471	73179
3	18750	27.969390839471	73320
3	18760	27.983230839471	73461
3	18770	27.997070839471	73602
3	18811	28.015648193702	73743
3	18818	28.029488193702	73884
3	18825	28.043328193702	74025
3	19373	29.278750839471	74166
3	19409	29.306430839471	74307
3	19418	29.347950839471	74448
3	19440	29.361790839471	74589
3	19447	29.375630839471	74730
3	19492	29.417150839471	74871
3	19503	29.444830839471	75012
3	20352	31.428750839471	75153
3	20582	31.978750839471	75294
3	20695	32.178750839471	75435
3	20705	32.192590839471	75576
3	21020	32.792590839471	75717
3	21052	32.820270839471	75858
3	21059	32.834110839471	75999
3	21069	32.847950839471	76140
3	21092	32.875630839471	76281
3	21099	32.889470839471	76422
3	22007	34.928750839471	76563
3	22017	34.942590839471	76704
3	22039	34.956430839471	76845
3	22049	34.970270839471	76986
3	22056	34.984110839471	77127
3	22063	34.997950839471	77268
3	22098	35.025630839471	77409
3	22754	36.528750839471	77550
3	22764	36.542590839471	77691
3	22785	36.556430839471	77832
3	23047	37.078750839471	77973
3	23933	38.928750839471	78114
3	24708	40.878750839471	78255
3	24851	41.078750839471	78396
3	26936	45.928750839471	78537
3	27330	46.778750839471	78678
3	29958	52.978750839471	78819
3	33830	61.778750839471	78960
3	34508	63.378750839471	79101
3	36363	67.578750839471	79242

