version 2
run B-0-20190914-23:49:47-22536
attr configname B
attr datetime 20190914-23:49:47
attr experiment B
attr inifile SimV2.ini
attr iterationvars ""
attr iterationvarsf ""
attr measurement ""
attr network NetworkTormV2
attr processid 22536
attr repetition 0
attr replication #0
attr resultdir results
attr runnumber 0
attr seedset 0
param **.mobility.traceFile "\"paths/B.movements\""
param **.numNodes 4
param **.wirelessIfc.wirelessRange 40m
param **.bluetoothIfc.wirelessRange 40m
param **application.destinationAddr "\"Wf:00:00:00:00:02\""
param **application.destinationBTAddr "\"Bt:00:00:00:00:02\""
param **application.nodesThatGen true
param **application.nodesGenMsg "\"0,1\""
param **application.startMultipleMsg true
param **application.numMultipleMsg 100
param **application.hopsListSize 50
param **.numNodes 2
param **.application.usedRNG 1
param **.application.dataGenerationInterval 1ms
param **.application.dataSizeInBytes 10
param **.application.ttl 999999s
param **application.destinationAddr "\"Wf:00:00:00:00:02\""
param **application.destinationBTAddr "\"Bt:00:00:00:00:02\""
param **application.nodesThatGen true
param **application.nodesGenMsg "\"0\""
param **application.startMultipleMsg true
param **application.numMultipleMsg 100
param **application.hopsListSize 50
param **.routingLayer "\"RoutingLayer\""
param **.routing.maximumCacheSize 5000byte
param **.routing.maximumHopCount 25
param **.routing.useTTL false
param **.routing.waitBFsend 0.5
param **.routing.max_age 999999s
param **.neighboring.antiEntropyInterval 500ms
param **.neighboring.maximumRandomBackoffDuration 1s
param **.neighboring.delayPerDataMsg 0.1
param **neighboring.usedRNG 2
param **.neighboring.GWAddr "\"02:00:00:00:00:09\""
param **.neighboring.sendWifiFirst true
param **.neighboring.maxLengthGraph 20
param **.neighboring.max_age 999999s
param **.wirelessIfc.wirelessRange 15m
param **.wirelessIfc.neighbourScanInterval 50ms
param **.wirelessIfc.bandwidthBitRate 100000bps
param **.wirelessIfc.wirelessHeaderSize 32byte
param **.wirelessIfc.minSSI -90
param **.bluetoothIfc.wirelessRange 15m
param **.bluetoothIfc.neighbourScanInterval 100ms
param **.bluetoothIfc.bandwidthBitRate 100000bps
param **.bluetoothIfc.wirelessHeaderSize 16byte
param **.bluetoothIfc.minSSI -90
param **.mobilityType "\"BonnMotionMobility\""
param **.mobility.traceFile "\"paths/Moves2.movements\""
param **.mobility.is3D false
param **.mobility.nodeId -1

vector 0 NetworkTormV2 neighbourhoodSize:vector ETV
attr source neighbourhoodSize
vector 1 NetworkTormV2 deliveryRatio:vector ETV
attr source sum(totalDataBytesReceived)/sum(totalDataBytesReceivableByAllNodes)
vector 2 NetworkTormV2 dataBytesReceivedSum:vector ETV
attr source sum(dataBytesReceived)
vector 3 NetworkTormV2 totalBytesReceivedSum:vector ETV
attr source sum(totalBytesReceived)
0	13	0.05	2
0	14	0.05	2
0	15	0.05	2
0	16	0.05	2
0	26	0.1	2
0	28	0.1	2
0	29	0.1	2
0	30	0.1	2
0	31	0.1	2
0	32	0.1	2
0	33	0.1	2
0	34	0.1	2
0	249	0.15	2
0	250	0.15	2
0	251	0.15	2
0	252	0.15	2
0	461	0.2	2
0	462	0.2	2
0	463	0.2	2
0	464	0.2	2
0	465	0.2	2
0	466	0.2	2
0	467	0.2	2
0	468	0.2	2
0	485	0.25	2
0	486	0.25	2
0	487	0.25	2
0	488	0.25	2
0	497	0.3	2
0	498	0.3	2
0	499	0.3	2
0	500	0.3	2
0	501	0.3	2
0	502	0.3	2
0	503	0.3	2
0	504	0.3	2
0	521	0.35	2
0	522	0.35	2
0	523	0.35	2
0	524	0.35	2
0	533	0.4	2
0	534	0.4	2
0	535	0.4	2
0	536	0.4	2
0	537	0.4	2
0	538	0.4	2
0	539	0.4	2
0	540	0.4	2
0	557	0.45	2
0	558	0.45	2
0	559	0.45	2
0	560	0.45	2
0	569	0.5	2
0	570	0.5	2
0	571	0.5	2
0	572	0.5	2
0	573	0.5	2
0	574	0.5	2
0	575	0.5	2
0	576	0.5	2
0	593	0.55	2
0	594	0.55	2
0	595	0.55	2
0	596	0.55	2
0	605	0.6	2
0	606	0.6	2
0	607	0.6	2
0	608	0.6	2
0	609	0.6	2
0	610	0.6	2
0	611	0.6	2
0	612	0.6	2
0	629	0.65	2
0	630	0.65	2
0	631	0.65	2
0	632	0.65	2
0	641	0.7	2
0	642	0.7	2
0	643	0.7	2
0	644	0.7	2
0	645	0.7	2
0	646	0.7	2
0	647	0.7	2
0	648	0.7	2
0	665	0.75	2
0	666	0.75	2
0	667	0.75	2
0	668	0.75	2
0	677	0.8	2
0	678	0.8	2
0	679	0.8	2
0	680	0.8	2
0	681	0.8	2
0	682	0.8	2
0	683	0.8	2
0	684	0.8	2
0	701	0.85	2
0	702	0.85	2
0	703	0.85	2
0	704	0.85	2
0	713	0.9	2
0	714	0.9	2
0	715	0.9	2
0	716	0.9	2
0	717	0.9	2
0	718	0.9	2
0	719	0.9	2
0	720	0.9	2
0	737	0.95	2
0	738	0.95	2
0	739	0.95	2
0	740	0.95	2
0	749	1	2
0	750	1	2
0	751	1	2
0	752	1	2
0	753	1	2
0	754	1	2
0	755	1	2
0	756	1	2
0	773	1.05	2
0	774	1.05	2
0	775	1.05	2
0	776	1.05	2
0	785	1.1	2
0	786	1.1	2
0	787	1.1	2
0	788	1.1	2
0	789	1.1	2
0	790	1.1	2
0	791	1.1	2
0	792	1.1	2
0	1061	1.15	2
0	1062	1.15	2
0	1063	1.15	2
0	1064	1.15	2
0	1101	1.2	2
0	1102	1.2	2
0	1103	1.2	2
0	1104	1.2	2
0	1105	1.2	2
0	1106	1.2	2
0	1107	1.2	2
0	1108	1.2	2
0	1143	1.25	2
0	1144	1.25	2
0	1145	1.25	2
0	1146	1.25	2
0	1183	1.3	2
0	1184	1.3	2
0	1185	1.3	2
0	1186	1.3	2
0	1187	1.3	2
0	1188	1.3	2
0	1189	1.3	2
0	1190	1.3	2
0	1226	1.35	2
0	1227	1.35	2
0	1228	1.35	2
0	1229	1.35	2
0	1259	1.4	2
0	1260	1.4	2
0	1261	1.4	2
0	1262	1.4	2
0	1263	1.4	2
0	1264	1.4	2
0	1265	1.4	2
0	1266	1.4	2
0	1311	1.45	2
0	1312	1.45	2
0	1313	1.45	2
0	1314	1.45	2
0	1336	1.5	2
0	1337	1.5	2
0	1338	1.5	2
0	1339	1.5	2
0	1340	1.5	2
0	1341	1.5	2
0	1342	1.5	2
0	1343	1.5	2
0	1375	1.55	2
0	1376	1.55	2
0	1377	1.55	2
0	1378	1.55	2
0	1409	1.6	2
0	1410	1.6	2
0	1411	1.6	2
0	1412	1.6	2
0	1413	1.6	2
0	1414	1.6	2
0	1415	1.6	2
0	1416	1.6	2
0	1463	1.65	2
0	1464	1.65	2
0	1465	1.65	2
0	1466	1.65	2
0	1515	1.7	2
0	1516	1.7	2
0	1517	1.7	2
0	1518	1.7	2
0	1519	1.7	2
0	1520	1.7	2
0	1521	1.7	2
0	1522	1.7	2
0	1549	1.75	2
0	1550	1.75	2
0	1551	1.75	2
0	1552	1.75	2
0	1579	1.8	2
0	1580	1.8	2
0	1581	1.8	2
0	1582	1.8	2
0	1583	1.8	2
0	1584	1.8	2
0	1585	1.8	2
0	1586	1.8	2
0	1627	1.85	2
0	1628	1.85	2
0	1629	1.85	2
0	1630	1.85	2
0	1655	1.9	2
0	1656	1.9	2
0	1657	1.9	2
0	1658	1.9	2
0	1659	1.9	2
0	1660	1.9	2
0	1661	1.9	2
0	1662	1.9	2
0	1694	1.95	2
0	1695	1.95	2
0	1696	1.95	2
0	1697	1.95	2
0	1734	2	2
0	1735	2	2
0	1736	2	2
0	1737	2	2
0	1738	2	2
0	1739	2	2
0	1740	2	2
0	1741	2	2
0	1770	2.05	2
0	1771	2.05	2
0	1772	2.05	2
0	1773	2.05	2
0	1813	2.1	2
0	1814	2.1	2
0	1815	2.1	2
0	1816	2.1	2
0	1817	2.1	2
0	1818	2.1	2
0	1819	2.1	2
0	1820	2.1	2
0	1846	2.15	2
0	1847	2.15	2
0	1848	2.15	2
0	1849	2.15	2
0	1877	2.2	2
0	1878	2.2	2
0	1879	2.2	2
0	1880	2.2	2
0	1881	2.2	2
0	1882	2.2	2
0	1883	2.2	2
0	1884	2.2	2
0	1929	2.25	2
0	1930	2.25	2
0	1931	2.25	2
0	1932	2.25	2
0	1962	2.3	2
0	1963	2.3	2
0	1964	2.3	2
0	1965	2.3	2
0	1966	2.3	2
0	1967	2.3	2
0	1968	2.3	2
0	1969	2.3	2
0	2008	2.35	2
0	2009	2.35	2
0	2010	2.35	2
0	2011	2.35	2
0	2056	2.4	2
0	2057	2.4	2
0	2058	2.4	2
0	2059	2.4	2
0	2060	2.4	2
0	2061	2.4	2
0	2062	2.4	2
0	2063	2.4	2
0	2102	2.45	2
0	2103	2.45	2
0	2104	2.45	2
0	2105	2.45	2
0	2146	2.5	2
0	2147	2.5	2
0	2148	2.5	2
0	2149	2.5	2
0	2150	2.5	2
0	2151	2.5	2
0	2152	2.5	2
0	2153	2.5	2
0	2178	2.55	2
0	2179	2.55	2
0	2180	2.55	2
0	2181	2.55	2
0	2190	2.6	2
0	2191	2.6	2
0	2192	2.6	2
0	2193	2.6	2
0	2194	2.6	2
0	2195	2.6	2
0	2196	2.6	2
0	2197	2.6	2
0	2214	2.65	2
0	2215	2.65	2
0	2216	2.65	2
0	2217	2.65	2
0	2239	2.7	2
0	2240	2.7	2
0	2241	2.7	2
0	2242	2.7	2
0	2243	2.7	2
0	2244	2.7	2
0	2245	2.7	2
0	2246	2.7	2
0	2539	2.75	2
0	2540	2.75	2
0	2541	2.75	2
0	2542	2.75	2
0	2578	2.8	2
0	2579	2.8	2
0	2580	2.8	2
0	2581	2.8	2
0	2582	2.8	2
0	2583	2.8	2
0	2584	2.8	2
0	2585	2.8	2
0	2652	2.85	2
0	2653	2.85	2
0	2654	2.85	2
0	2655	2.85	2
0	2690	2.9	2
0	2691	2.9	2
0	2692	2.9	2
0	2693	2.9	2
0	2694	2.9	2
0	2695	2.9	2
0	2696	2.9	2
0	2697	2.9	2
0	2730	2.95	2
0	2731	2.95	2
0	2732	2.95	2
0	2733	2.95	2
0	2746	3	2
0	2747	3	2
0	2748	3	2
0	2749	3	2
0	2750	3	2
0	2751	3	2
0	2752	3	2
0	2753	3	2
0	2791	3.05	2
0	2792	3.05	2
0	2793	3.05	2
0	2794	3.05	2
0	2822	3.1	2
0	2823	3.1	2
0	2824	3.1	2
0	2825	3.1	2
0	2826	3.1	2
0	2827	3.1	2
0	2828	3.1	2
0	2829	3.1	2
0	2873	3.15	2
0	2874	3.15	2
0	2875	3.15	2
0	2876	3.15	2
0	2907	3.2	2
0	2908	3.2	2
0	2909	3.2	2
0	2910	3.2	2
0	2911	3.2	2
0	2912	3.2	2
0	2913	3.2	2
0	2914	3.2	2
0	2975	3.25	2
0	2976	3.25	2
0	2977	3.25	2
0	2978	3.25	2
0	3045	3.3	2
0	3046	3.3	2
0	3047	3.3	2
0	3048	3.3	2
0	3049	3.3	2
0	3050	3.3	2
0	3051	3.3	2
0	3052	3.3	2
0	3109	3.35	2
0	3110	3.35	2
0	3111	3.35	2
0	3112	3.35	2
0	3134	3.4	2
0	3135	3.4	2
0	3136	3.4	2
0	3137	3.4	2
0	3138	3.4	2
0	3139	3.4	2
0	3140	3.4	2
0	3141	3.4	2
0	3176	3.45	2
0	3177	3.45	2
0	3178	3.45	2
0	3179	3.45	2
0	3201	3.5	2
0	3202	3.5	2
0	3203	3.5	2
0	3204	3.5	2
0	3205	3.5	2
0	3206	3.5	2
0	3207	3.5	2
0	3208	3.5	2
0	3241	3.55	2
0	3242	3.55	2
0	3243	3.55	2
0	3244	3.55	2
0	3265	3.6	2
0	3266	3.6	2
0	3267	3.6	2
0	3268	3.6	2
0	3269	3.6	2
0	3270	3.6	2
0	3271	3.6	2
0	3272	3.6	2
0	3308	3.65	2
0	3309	3.65	2
0	3310	3.65	2
0	3311	3.65	2
0	3344	3.7	2
0	3345	3.7	2
0	3346	3.7	2
0	3347	3.7	2
0	3348	3.7	2
0	3349	3.7	2
0	3350	3.7	2
0	3351	3.7	2
0	3399	3.75	2
0	3400	3.75	2
0	3401	3.75	2
0	3402	3.75	2
0	3441	3.8	2
0	3442	3.8	2
0	3443	3.8	2
0	3444	3.8	2
0	3445	3.8	2
0	3446	3.8	2
0	3447	3.8	2
0	3448	3.8	2
0	3508	3.85	2
0	3509	3.85	2
0	3510	3.85	2
0	3511	3.85	2
0	3551	3.9	2
0	3552	3.9	2
0	3553	3.9	2
0	3554	3.9	2
0	3555	3.9	2
0	3556	3.9	2
0	3557	3.9	2
0	3558	3.9	2
0	3587	3.95	2
0	3588	3.95	2
0	3589	3.95	2
0	3590	3.95	2
0	3609	4	2
0	3610	4	2
0	3611	4	2
0	3612	4	2
0	3613	4	2
0	3614	4	2
0	3615	4	2
0	3616	4	2
0	3651	4.05	2
0	3652	4.05	2
0	3653	4.05	2
0	3654	4.05	2
0	3682	4.1	2
0	3683	4.1	2
0	3684	4.1	2
0	3685	4.1	2
0	3686	4.1	2
0	3687	4.1	2
0	3688	4.1	2
0	3689	4.1	2
0	3738	4.15	2
0	3739	4.15	2
0	3740	4.15	2
0	3741	4.15	2
0	3750	4.2	2
0	3751	4.2	2
0	3752	4.2	2
0	3753	4.2	2
0	3754	4.2	2
0	3755	4.2	2
0	3756	4.2	2
0	3757	4.2	2
0	3774	4.25	2
0	3775	4.25	2
0	3776	4.25	2
0	3777	4.25	2
0	3802	4.3	2
0	3803	4.3	2
0	3804	4.3	2
0	3805	4.3	2
0	3806	4.3	2
0	3807	4.3	2
0	3808	4.3	2
0	3809	4.3	2
0	3826	4.35	2
0	3827	4.35	2
0	3828	4.35	2
0	3829	4.35	2
0	3841	4.4	2
0	3842	4.4	2
0	3843	4.4	2
0	3844	4.4	2
0	3845	4.4	2
0	3846	4.4	2
0	3847	4.4	2
0	3848	4.4	2
0	3868	4.45	2
0	3869	4.45	2
0	3870	4.45	2
0	3871	4.45	2
0	3883	4.5	2
0	3884	4.5	2
0	3885	4.5	2
0	3886	4.5	2
0	3887	4.5	2
0	3888	4.5	2
0	3889	4.5	2
0	3890	4.5	2
0	3907	4.55	2
0	3908	4.55	2
0	3909	4.55	2
0	3910	4.55	2
0	3919	4.6	2
0	3920	4.6	2
0	3921	4.6	2
0	3922	4.6	2
0	3923	4.6	2
0	3924	4.6	2
0	3925	4.6	2
0	3926	4.6	2
0	3943	4.65	2
0	3944	4.65	2
0	3945	4.65	2
0	3946	4.65	2
0	3955	4.7	2
0	3956	4.7	2
0	3957	4.7	2
0	3958	4.7	2
0	3959	4.7	2
0	3960	4.7	2
0	3961	4.7	2
0	3962	4.7	2
0	3979	4.75	2
0	3980	4.75	2
0	3981	4.75	2
0	3982	4.75	2
0	3991	4.8	2
0	3992	4.8	2
0	3993	4.8	2
0	3994	4.8	2
0	3995	4.8	2
0	3996	4.8	2
0	3997	4.8	2
0	3998	4.8	2
0	4018	4.85	2
0	4019	4.85	2
0	4020	4.85	2
0	4021	4.85	2
0	4030	4.9	2
0	4031	4.9	2
0	4032	4.9	2
0	4033	4.9	2
0	4034	4.9	2
0	4035	4.9	2
0	4036	4.9	2
0	4037	4.9	2
0	4054	4.95	2
0	4055	4.95	2
0	4056	4.95	2
0	4057	4.95	2
0	4254	5	2
0	4255	5	2
0	4256	5	2
0	4257	5	2
0	4258	5	2
0	4259	5	2
0	4260	5	2
0	4261	5	2
0	4291	5.05	2
0	4292	5.05	2
0	4293	5.05	2
0	4294	5.05	2
0	4333	5.1	2
0	4334	5.1	2
0	4335	5.1	2
0	4336	5.1	2
0	4337	5.1	2
0	4338	5.1	2
0	4339	5.1	2
0	4340	5.1	2
0	4388	5.15	2
0	4389	5.15	2
0	4390	5.15	2
0	4391	5.15	2
0	4410	5.2	2
0	4411	5.2	2
0	4412	5.2	2
0	4413	5.2	2
0	4414	5.2	2
0	4415	5.2	2
0	4416	5.2	2
0	4417	5.2	2
0	4464	5.25	2
0	4465	5.25	2
0	4466	5.25	2
0	4467	5.25	2
0	4504	5.3	2
0	4505	5.3	2
0	4506	5.3	2
0	4507	5.3	2
0	4508	5.3	2
0	4509	5.3	2
0	4510	5.3	2
0	4511	5.3	2
0	4552	5.35	2
0	4553	5.35	2
0	4554	5.35	2
0	4555	5.35	2
0	4592	5.4	2
0	4593	5.4	2
0	4594	5.4	2
0	4595	5.4	2
0	4596	5.4	2
0	4597	5.4	2
0	4598	5.4	2
0	4599	5.4	2
0	4638	5.45	2
0	4639	5.45	2
0	4640	5.45	2
0	4641	5.45	2
0	4671	5.5	2
0	4672	5.5	2
0	4673	5.5	2
0	4674	5.5	2
0	4675	5.5	2
0	4676	5.5	2
0	4677	5.5	2
0	4678	5.5	2
0	4737	5.55	2
0	4738	5.55	2
0	4739	5.55	2
0	4740	5.55	2
0	4761	5.6	2
0	4762	5.6	2
0	4763	5.6	2
0	4764	5.6	2
0	4765	5.6	2
0	4766	5.6	2
0	4767	5.6	2
0	4768	5.6	2
0	4816	5.65	2
0	4817	5.65	2
0	4818	5.65	2
0	4819	5.65	2
0	4855	5.7	2
0	4856	5.7	2
0	4857	5.7	2
0	4858	5.7	2
0	4859	5.7	2
0	4860	5.7	2
0	4861	5.7	2
0	4862	5.7	2
0	4910	5.75	2
0	4911	5.75	2
0	4912	5.75	2
0	4913	5.75	2
0	4950	5.8	2
0	4951	5.8	2
0	4952	5.8	2
0	4953	5.8	2
0	4954	5.8	2
0	4955	5.8	2
0	4956	5.8	2
0	4957	5.8	2
0	4992	5.85	2
0	4993	5.85	2
0	4994	5.85	2
0	4995	5.85	2
0	5022	5.9	2
0	5023	5.9	2
0	5024	5.9	2
0	5025	5.9	2
0	5026	5.9	2
0	5027	5.9	2
0	5028	5.9	2
0	5029	5.9	2
0	5065	5.95	2
0	5066	5.95	2
0	5067	5.95	2
0	5068	5.95	2
0	5120	6	2
0	5121	6	2
0	5122	6	2
0	5123	6	2
0	5124	6	2
0	5125	6	2
0	5126	6	2
0	5127	6	2
0	5163	6.05	2
0	5164	6.05	2
0	5165	6.05	2
0	5166	6.05	2
0	5207	6.1	2
0	5208	6.1	2
0	5209	6.1	2
0	5210	6.1	2
0	5211	6.1	2
0	5212	6.1	2
0	5213	6.1	2
0	5214	6.1	2
0	5360	6.15	2
0	5361	6.15	2
0	5362	6.15	2
0	5363	6.15	2
0	5390	6.2	2
0	5391	6.2	2
0	5392	6.2	2
0	5393	6.2	2
0	5394	6.2	2
0	5395	6.2	2
0	5396	6.2	2
0	5397	6.2	2
0	5439	6.25	2
0	5440	6.25	2
0	5441	6.25	2
0	5442	6.25	2
0	5482	6.3	2
0	5483	6.3	2
0	5484	6.3	2
0	5485	6.3	2
0	5486	6.3	2
0	5487	6.3	2
0	5488	6.3	2
0	5489	6.3	2
0	5521	6.35	2
0	5522	6.35	2
0	5523	6.35	2
0	5524	6.35	2
0	5549	6.4	2
0	5550	6.4	2
0	5551	6.4	2
0	5552	6.4	2
0	5553	6.4	2
0	5554	6.4	2
0	5555	6.4	2
0	5556	6.4	2
0	5609	6.45	2
0	5610	6.45	2
0	5611	6.45	2
0	5612	6.45	2
0	5651	6.5	2
0	5652	6.5	2
0	5653	6.5	2
0	5654	6.5	2
0	5655	6.5	2
0	5656	6.5	2
0	5657	6.5	2
0	5658	6.5	2
0	5700	6.55	2
0	5701	6.55	2
0	5702	6.55	2
0	5703	6.55	2
0	5748	6.6	2
0	5749	6.6	2
0	5750	6.6	2
0	5751	6.6	2
0	5752	6.6	2
0	5753	6.6	2
0	5754	6.6	2
0	5755	6.6	2
0	5788	6.65	2
0	5789	6.65	2
0	5790	6.65	2
0	5791	6.65	2
0	5819	6.7	2
0	5820	6.7	2
0	5821	6.7	2
0	5822	6.7	2
0	5823	6.7	2
0	5824	6.7	2
0	5825	6.7	2
0	5826	6.7	2
0	5844	6.75	2
0	5845	6.75	2
0	5846	6.75	2
0	5847	6.75	2
0	5856	6.8	2
0	5857	6.8	2
0	5858	6.8	2
0	5859	6.8	2
0	5860	6.8	2
0	5861	6.8	2
0	5862	6.8	2
0	5863	6.8	2
0	5880	6.85	2
0	5881	6.85	2
0	5882	6.85	2
0	5883	6.85	2
0	5892	6.9	2
0	5893	6.9	2
0	5894	6.9	2
0	5895	6.9	2
0	5896	6.9	2
0	5897	6.9	2
0	5898	6.9	2
0	5899	6.9	2
0	5916	6.95	2
0	5917	6.95	2
0	5918	6.95	2
0	5919	6.95	2
0	5928	7	2
0	5929	7	2
0	5930	7	2
0	5931	7	2
0	5932	7	2
0	5933	7	2
0	5934	7	2
0	5935	7	2
0	5952	7.05	2
0	5953	7.05	2
0	5954	7.05	2
0	5955	7.05	2
0	5964	7.1	2
0	5965	7.1	2
0	5966	7.1	2
0	5967	7.1	2
0	5968	7.1	2
0	5969	7.1	2
0	5970	7.1	2
0	5971	7.1	2
0	6058	7.15	2
0	6059	7.15	2
0	6060	7.15	2
0	6061	7.15	2
0	6088	7.2	2
0	6089	7.2	2
0	6090	7.2	2
0	6091	7.2	2
0	6092	7.2	2
0	6093	7.2	2
0	6094	7.2	2
0	6095	7.2	2
0	6116	7.25	2
0	6117	7.25	2
0	6118	7.25	2
0	6119	7.25	2
0	6165	7.3	2
0	6166	7.3	2
0	6167	7.3	2
0	6168	7.3	2
0	6169	7.3	2
0	6170	7.3	2
0	6171	7.3	2
0	6172	7.3	2
0	6220	7.35	2
0	6221	7.35	2
0	6222	7.35	2
0	6223	7.35	2
0	6259	7.4	2
0	6260	7.4	2
0	6261	7.4	2
0	6262	7.4	2
0	6263	7.4	2
0	6264	7.4	2
0	6265	7.4	2
0	6266	7.4	2
0	6305	7.45	2
0	6306	7.45	2
0	6307	7.45	2
0	6308	7.45	2
0	6317	7.5	2
0	6318	7.5	2
0	6319	7.5	2
0	6320	7.5	2
0	6321	7.5	2
0	6322	7.5	2
0	6323	7.5	2
0	6324	7.5	2
0	6341	7.55	2
0	6342	7.55	2
0	6343	7.55	2
0	6344	7.55	2
0	6353	7.6	2
0	6354	7.6	2
0	6355	7.6	2
0	6356	7.6	2
0	6357	7.6	2
0	6358	7.6	2
0	6359	7.6	2
0	6360	7.6	2
0	6377	7.65	2
0	6378	7.65	2
0	6379	7.65	2
0	6380	7.65	2
0	6527	7.7	2
0	6528	7.7	2
0	6529	7.7	2
0	6530	7.7	2
0	6531	7.7	2
0	6532	7.7	2
0	6533	7.7	2
0	6534	7.7	2
0	6573	7.75	2
0	6574	7.75	2
0	6575	7.75	2
0	6576	7.75	2
0	6610	7.8	2
0	6611	7.8	2
0	6612	7.8	2
0	6613	7.8	2
0	6614	7.8	2
0	6615	7.8	2
0	6616	7.8	2
0	6617	7.8	2
0	6683	7.85	2
0	6684	7.85	2
0	6685	7.85	2
0	6686	7.85	2
0	6724	7.9	2
0	6725	7.9	2
0	6726	7.9	2
0	6727	7.9	2
0	6728	7.9	2
0	6729	7.9	2
0	6730	7.9	2
0	6731	7.9	2
0	6760	7.95	2
0	6761	7.95	2
0	6762	7.95	2
0	6763	7.95	2
0	6791	8	2
0	6792	8	2
0	6793	8	2
0	6794	8	2
0	6795	8	2
0	6796	8	2
0	6797	8	2
0	6798	8	2
0	6836	8.05	2
0	6837	8.05	2
0	6838	8.05	2
0	6839	8.05	2
0	6861	8.1	2
0	6862	8.1	2
0	6863	8.1	2
0	6864	8.1	2
0	6865	8.1	2
0	6866	8.1	2
0	6867	8.1	2
0	6868	8.1	2
0	6909	8.15	2
0	6910	8.15	2
0	6911	8.15	2
0	6912	8.15	2
0	6947	8.2	2
0	6948	8.2	2
0	6949	8.2	2
0	6950	8.2	2
0	6951	8.2	2
0	6952	8.2	2
0	6953	8.2	2
0	6954	8.2	2
0	6993	8.25	2
0	6994	8.25	2
0	6995	8.25	2
0	6996	8.25	2
0	7039	8.3	2
0	7040	8.3	2
0	7041	8.3	2
0	7042	8.3	2
0	7043	8.3	2
0	7044	8.3	2
0	7045	8.3	2
0	7046	8.3	2
0	7091	8.35	2
0	7092	8.35	2
0	7093	8.35	2
0	7094	8.35	2
0	7121	8.4	2
0	7122	8.4	2
0	7123	8.4	2
0	7124	8.4	2
0	7125	8.4	2
0	7126	8.4	2
0	7127	8.4	2
0	7128	8.4	2
0	7176	8.45	2
0	7177	8.45	2
0	7178	8.45	2
0	7179	8.45	2
0	7205	8.5	2
0	7206	8.5	2
0	7207	8.5	2
0	7208	8.5	2
0	7209	8.5	2
0	7210	8.5	2
0	7211	8.5	2
0	7212	8.5	2
0	7229	8.55	2
0	7230	8.55	2
0	7231	8.55	2
0	7232	8.55	2
0	7241	8.6	2
0	7242	8.6	2
0	7243	8.6	2
0	7244	8.6	2
0	7245	8.6	2
0	7246	8.6	2
0	7247	8.6	2
0	7248	8.6	2
0	7265	8.65	2
0	7266	8.65	2
0	7267	8.65	2
0	7268	8.65	2
0	7277	8.7	2
0	7278	8.7	2
0	7279	8.7	2
0	7280	8.7	2
0	7281	8.7	2
0	7282	8.7	2
0	7283	8.7	2
0	7284	8.7	2
0	7301	8.75	2
0	7302	8.75	2
0	7303	8.75	2
0	7304	8.75	2
0	7313	8.8	2
0	7314	8.8	2
0	7315	8.8	2
0	7316	8.8	2
0	7317	8.8	2
0	7318	8.8	2
0	7319	8.8	2
0	7320	8.8	2
0	7337	8.85	2
0	7338	8.85	2
0	7339	8.85	2
0	7340	8.85	2
0	7352	8.9	2
0	7353	8.9	2
0	7354	8.9	2
0	7355	8.9	2
0	7356	8.9	2
0	7357	8.9	2
0	7358	8.9	2
0	7359	8.9	2
0	7376	8.95	2
0	7377	8.95	2
0	7378	8.95	2
0	7379	8.95	2
0	7388	9	2
0	7389	9	2
0	7390	9	2
0	7391	9	2
0	7392	9	2
0	7393	9	2
0	7394	9	2
0	7395	9	2
0	7412	9.05	2
0	7413	9.05	2
0	7414	9.05	2
0	7415	9.05	2
0	7424	9.1	2
0	7425	9.1	2
0	7426	9.1	2
0	7427	9.1	2
0	7428	9.1	2
0	7429	9.1	2
0	7430	9.1	2
0	7431	9.1	2
0	7448	9.15	2
0	7449	9.15	2
0	7450	9.15	2
0	7451	9.15	2
0	7460	9.2	2
0	7461	9.2	2
0	7462	9.2	2
0	7463	9.2	2
0	7464	9.2	2
0	7465	9.2	2
0	7466	9.2	2
0	7467	9.2	2
0	7534	9.25	2
0	7535	9.25	2
0	7536	9.25	2
0	7537	9.25	2
0	7568	9.3	2
0	7569	9.3	2
0	7570	9.3	2
0	7571	9.3	2
0	7572	9.3	2
0	7573	9.3	2
0	7574	9.3	2
0	7575	9.3	2
0	7601	9.35	2
0	7602	9.35	2
0	7603	9.35	2
0	7604	9.35	2
0	7632	9.4	2
0	7633	9.4	2
0	7634	9.4	2
0	7635	9.4	2
0	7636	9.4	2
0	7637	9.4	2
0	7638	9.4	2
0	7639	9.4	2
0	7682	9.45	2
0	7683	9.45	2
0	7684	9.45	2
0	7685	9.45	2
0	7694	9.5	2
0	7695	9.5	2
0	7696	9.5	2
0	7697	9.5	2
0	7698	9.5	2
0	7699	9.5	2
0	7700	9.5	2
0	7701	9.5	2
0	7718	9.55	2
0	7719	9.55	2
0	7720	9.55	2
0	7721	9.55	2
0	7740	9.6	2
0	7741	9.6	2
0	7742	9.6	2
0	7743	9.6	2
0	7744	9.6	2
0	7745	9.6	2
0	7746	9.6	2
0	7747	9.6	2
0	7777	9.65	2
0	7778	9.65	2
0	7779	9.65	2
0	7780	9.65	2
0	7789	9.7	2
0	7790	9.7	2
0	7791	9.7	2
0	7792	9.7	2
0	7793	9.7	2
0	7794	9.7	2
0	7795	9.7	2
0	7796	9.7	2
0	7813	9.75	2
0	7814	9.75	2
0	7815	9.75	2
0	7816	9.75	2
0	7848	9.8	2
0	7849	9.8	2
0	7850	9.8	2
0	7851	9.8	2
0	7852	9.8	2
0	7853	9.8	2
0	7854	9.8	2
0	7855	9.8	2
0	7872	9.85	2
0	7873	9.85	2
0	7874	9.85	2
0	7875	9.85	2
0	7897	9.9	2
0	7898	9.9	2
0	7899	9.9	2
0	7900	9.9	2
0	7901	9.9	2
0	7902	9.9	2
0	7903	9.9	2
0	7904	9.9	2
0	7921	9.95	2
0	7922	9.95	2
0	7923	9.95	2
0	7924	9.95	2
0	7956	10	2
0	7957	10	2
0	7958	10	2
0	7959	10	2
0	7960	10	2
0	7961	10	2
0	7962	10	2
0	7963	10	2
0	7983	10.05	2
0	7984	10.05	2
0	7985	10.05	2
0	7986	10.05	2
0	7995	10.1	2
0	7996	10.1	2
0	7997	10.1	2
0	7998	10.1	2
0	7999	10.1	2
0	8000	10.1	2
0	8001	10.1	2
0	8002	10.1	2
0	8029	10.15	2
0	8030	10.15	2
0	8031	10.15	2
0	8032	10.15	2
0	8054	10.2	2
0	8055	10.2	2
0	8056	10.2	2
0	8057	10.2	2
0	8058	10.2	2
0	8059	10.2	2
0	8060	10.2	2
0	8061	10.2	2
0	8078	10.25	2
0	8079	10.25	2
0	8080	10.25	2
0	8081	10.25	2
0	8090	10.3	2
0	8091	10.3	2
0	8092	10.3	2
0	8093	10.3	2
0	8094	10.3	2
0	8095	10.3	2
0	8096	10.3	2
0	8097	10.3	2
0	8130	10.35	2
0	8131	10.35	2
0	8132	10.35	2
0	8133	10.35	2
0	8142	10.4	2
0	8143	10.4	2
0	8144	10.4	2
0	8145	10.4	2
0	8146	10.4	2
0	8147	10.4	2
0	8148	10.4	2
0	8149	10.4	2
0	8166	10.45	2
0	8167	10.45	2
0	8168	10.45	2
0	8169	10.45	2
0	8178	10.5	2
0	8179	10.5	2
0	8180	10.5	2
0	8181	10.5	2
0	8182	10.5	2
0	8183	10.5	2
0	8184	10.5	2
0	8185	10.5	2
0	8215	10.55	2
0	8216	10.55	2
0	8217	10.55	2
0	8218	10.55	2
0	8227	10.6	2
0	8228	10.6	2
0	8229	10.6	2
0	8230	10.6	2
0	8231	10.6	2
0	8232	10.6	2
0	8233	10.6	2
0	8234	10.6	2
0	8251	10.65	2
0	8252	10.65	2
0	8253	10.65	2
0	8254	10.65	2
0	8273	10.7	2
0	8274	10.7	2
0	8275	10.7	2
0	8276	10.7	2
0	8277	10.7	2
0	8278	10.7	2
0	8279	10.7	2
0	8280	10.7	2
0	8310	10.75	2
0	8311	10.75	2
0	8312	10.75	2
0	8313	10.75	2
0	8322	10.8	2
0	8323	10.8	2
0	8324	10.8	2
0	8325	10.8	2
0	8326	10.8	2
0	8327	10.8	2
0	8328	10.8	2
0	8329	10.8	2
0	8346	10.85	2
0	8347	10.85	2
0	8348	10.85	2
0	8349	10.85	2
0	8371	10.9	2
0	8372	10.9	2
0	8373	10.9	2
0	8374	10.9	2
0	8375	10.9	2
0	8376	10.9	2
0	8377	10.9	2
0	8378	10.9	2
0	8395	10.95	2
0	8396	10.95	2
0	8397	10.95	2
0	8398	10.95	2
0	8407	11	2
0	8408	11	2
0	8409	11	2
0	8410	11	2
0	8411	11	2
0	8412	11	2
0	8413	11	2
0	8414	11	2
0	8431	11.05	2
0	8432	11.05	2
0	8433	11.05	2
0	8434	11.05	2
0	8456	11.1	2
0	8457	11.1	2
0	8458	11.1	2
0	8459	11.1	2
0	8460	11.1	2
0	8461	11.1	2
0	8462	11.1	2
0	8463	11.1	2
0	8480	11.15	2
0	8481	11.15	2
0	8482	11.15	2
0	8483	11.15	2
0	8492	11.2	2
0	8493	11.2	2
0	8494	11.2	2
0	8495	11.2	2
0	8496	11.2	2
0	8497	11.2	2
0	8498	11.2	2
0	8499	11.2	2
0	8526	11.25	2
0	8527	11.25	2
0	8528	11.25	2
0	8529	11.25	2
0	8541	11.3	2
0	8542	11.3	2
0	8543	11.3	2
0	8544	11.3	2
0	8545	11.3	2
0	8546	11.3	2
0	8547	11.3	2
0	8548	11.3	2
0	8565	11.35	2
0	8566	11.35	2
0	8567	11.35	2
0	8568	11.35	2
0	8577	11.4	2
0	8578	11.4	2
0	8579	11.4	2
0	8580	11.4	2
0	8581	11.4	2
0	8582	11.4	2
0	8583	11.4	2
0	8584	11.4	2
0	8601	11.45	2
0	8602	11.45	2
0	8603	11.45	2
0	8604	11.45	2
0	8616	11.5	2
0	8617	11.5	2
0	8618	11.5	2
0	8619	11.5	2
0	8620	11.5	2
0	8621	11.5	2
0	8622	11.5	2
0	8623	11.5	2
0	8640	11.55	2
0	8641	11.55	2
0	8642	11.55	2
0	8643	11.55	2
0	8665	11.6	2
0	8666	11.6	2
0	8667	11.6	2
0	8668	11.6	2
0	8669	11.6	2
0	8670	11.6	2
0	8671	11.6	2
0	8672	11.6	2
0	8791	11.65	2
0	8792	11.65	2
0	8793	11.65	2
0	8794	11.65	2
0	8828	11.7	2
0	8829	11.7	2
0	8830	11.7	2
0	8831	11.7	2
0	8832	11.7	2
0	8833	11.7	2
0	8834	11.7	2
0	8835	11.7	2
0	8868	11.75	2
0	8869	11.75	2
0	8870	11.75	2
0	8871	11.75	2
0	8913	11.8	2
0	8914	11.8	2
0	8915	11.8	2
0	8916	11.8	2
0	8917	11.8	2
0	8918	11.8	2
0	8919	11.8	2
0	8920	11.8	2
0	8959	11.85	2
0	8960	11.85	2
0	8961	11.85	2
0	8962	11.85	2
0	8989	11.9	2
0	8990	11.9	2
0	8991	11.9	2
0	8992	11.9	2
0	8993	11.9	2
0	8994	11.9	2
0	8995	11.9	2
0	8996	11.9	2
0	9041	11.95	2
0	9042	11.95	2
0	9043	11.95	2
0	9044	11.95	2
0	9068	12	2
0	9069	12	2
0	9070	12	2
0	9071	12	2
0	9072	12	2
0	9073	12	2
0	9074	12	2
0	9075	12	2
0	9117	12.05	2
0	9118	12.05	2
0	9119	12.05	2
0	9120	12.05	2
0	9148	12.1	2
0	9149	12.1	2
0	9150	12.1	2
0	9151	12.1	2
0	9152	12.1	2
0	9153	12.1	2
0	9154	12.1	2
0	9155	12.1	2
0	9172	12.15	2
0	9173	12.15	2
0	9174	12.15	2
0	9175	12.15	2
0	9187	12.2	2
0	9188	12.2	2
0	9189	12.2	2
0	9190	12.2	2
0	9191	12.2	2
0	9192	12.2	2
0	9193	12.2	2
0	9194	12.2	2
0	9211	12.25	2
0	9212	12.25	2
0	9213	12.25	2
0	9214	12.25	2
0	9223	12.3	2
0	9224	12.3	2
0	9225	12.3	2
0	9226	12.3	2
0	9227	12.3	2
0	9228	12.3	2
0	9229	12.3	2
0	9230	12.3	2
0	9247	12.35	2
0	9248	12.35	2
0	9249	12.35	2
0	9250	12.35	2
0	9259	12.4	2
0	9260	12.4	2
0	9261	12.4	2
0	9262	12.4	2
0	9263	12.4	2
0	9264	12.4	2
0	9265	12.4	2
0	9266	12.4	2
0	9283	12.45	2
0	9284	12.45	2
0	9285	12.45	2
0	9286	12.45	2
0	9305	12.5	2
0	9306	12.5	2
0	9307	12.5	2
0	9308	12.5	2
0	9309	12.5	2
0	9310	12.5	2
0	9311	12.5	2
0	9312	12.5	2
0	9329	12.55	2
0	9330	12.55	2
0	9331	12.55	2
0	9332	12.55	2
0	9341	12.6	2
0	9342	12.6	2
0	9343	12.6	2
0	9344	12.6	2
0	9345	12.6	2
0	9346	12.6	2
0	9347	12.6	2
0	9348	12.6	2
0	9378	12.65	2
0	9379	12.65	2
0	9380	12.65	2
0	9381	12.65	2
0	9390	12.7	2
0	9391	12.7	2
0	9392	12.7	2
0	9393	12.7	2
0	9394	12.7	2
0	9395	12.7	2
0	9396	12.7	2
0	9397	12.7	2
0	9414	12.75	2
0	9415	12.75	2
0	9416	12.75	2
0	9417	12.75	2
0	9426	12.8	2
0	9427	12.8	2
0	9428	12.8	2
0	9429	12.8	2
0	9430	12.8	2
0	9431	12.8	2
0	9432	12.8	2
0	9433	12.8	2
0	9450	12.85	2
0	9451	12.85	2
0	9452	12.85	2
0	9453	12.85	2
0	9462	12.9	2
0	9463	12.9	2
0	9464	12.9	2
0	9465	12.9	2
0	9466	12.9	2
0	9467	12.9	2
0	9468	12.9	2
0	9469	12.9	2
0	9486	12.95	2
0	9487	12.95	2
0	9488	12.95	2
0	9489	12.95	2
0	9498	13	2
0	9499	13	2
0	9500	13	2
0	9501	13	2
0	9502	13	2
0	9503	13	2
0	9504	13	2
0	9505	13	2
0	9532	13.05	2
0	9533	13.05	2
0	9534	13.05	2
0	9535	13.05	2
0	9544	13.1	2
0	9545	13.1	2
0	9546	13.1	2
0	9547	13.1	2
0	9548	13.1	2
0	9549	13.1	2
0	9550	13.1	2
0	9551	13.1	2
0	9568	13.15	2
0	9569	13.15	2
0	9570	13.15	2
0	9571	13.15	2
0	9596	13.2	2
0	9597	13.2	2
0	9598	13.2	2
0	9599	13.2	2
0	9600	13.2	2
0	9601	13.2	2
0	9602	13.2	2
0	9603	13.2	2
0	9630	13.25	2
0	9631	13.25	2
0	9632	13.25	2
0	9633	13.25	2
0	9642	13.3	2
0	9643	13.3	2
0	9644	13.3	2
0	9645	13.3	2
0	9646	13.3	2
0	9647	13.3	2
0	9648	13.3	2
0	9649	13.3	2
0	9708	13.35	2
0	9709	13.35	2
0	9710	13.35	2
0	9711	13.35	2
0	9739	13.4	2
0	9740	13.4	2
0	9741	13.4	2
0	9742	13.4	2
0	9743	13.4	2
0	9744	13.4	2
0	9745	13.4	2
0	9746	13.4	2
0	9788	13.45	2
0	9789	13.45	2
0	9790	13.45	2
0	9791	13.45	2
0	9800	13.5	2
0	9801	13.5	2
0	9802	13.5	2
0	9803	13.5	2
0	9804	13.5	2
0	9805	13.5	2
0	9806	13.5	2
0	9807	13.5	2
0	9824	13.55	2
0	9825	13.55	2
0	9826	13.55	2
0	9827	13.55	2
0	9849	13.6	2
0	9850	13.6	2
0	9851	13.6	2
0	9852	13.6	2
0	9853	13.6	2
0	9854	13.6	2
0	9855	13.6	2
0	9856	13.6	2
0	9876	13.65	2
0	9877	13.65	2
0	9878	13.65	2
0	9879	13.65	2
0	9888	13.7	2
0	9889	13.7	2
0	9890	13.7	2
0	9891	13.7	2
0	9892	13.7	2
0	9893	13.7	2
0	9894	13.7	2
0	9895	13.7	2
0	9925	13.75	2
0	9926	13.75	2
0	9927	13.75	2
0	9928	13.75	2
0	9950	13.8	2
0	9951	13.8	2
0	9952	13.8	2
0	9953	13.8	2
0	9954	13.8	2
0	9955	13.8	2
0	9956	13.8	2
0	9957	13.8	2
0	9974	13.85	2
0	9975	13.85	2
0	9976	13.85	2
0	9977	13.85	2
0	9986	13.9	2
0	9987	13.9	2
0	9988	13.9	2
0	9989	13.9	2
0	9990	13.9	2
0	9991	13.9	2
0	9992	13.9	2
0	9993	13.9	2
0	10010	13.95	2
0	10011	13.95	2
0	10012	13.95	2
0	10013	13.95	2
0	10022	14	2
0	10023	14	2
0	10024	14	2
0	10025	14	2
0	10026	14	2
0	10027	14	2
0	10028	14	2
0	10029	14	2
0	10046	14.05	2
0	10047	14.05	2
0	10048	14.05	2
0	10049	14.05	2
0	10058	14.1	2
0	10059	14.1	2
0	10060	14.1	2
0	10061	14.1	2
0	10062	14.1	2
0	10063	14.1	2
0	10064	14.1	2
0	10065	14.1	2
0	10085	14.15	2
0	10086	14.15	2
0	10087	14.15	2
0	10088	14.15	2
0	10107	14.2	2
0	10108	14.2	2
0	10109	14.2	2
0	10110	14.2	2
0	10111	14.2	2
0	10112	14.2	2
0	10113	14.2	2
0	10114	14.2	2
0	10131	14.25	2
0	10132	14.25	2
0	10133	14.25	2
0	10134	14.25	2
0	10143	14.3	2
0	10144	14.3	2
0	10145	14.3	2
0	10146	14.3	2
0	10147	14.3	2
0	10148	14.3	2
0	10149	14.3	2
0	10150	14.3	2
0	10229	14.35	2
0	10230	14.35	2
0	10231	14.35	2
0	10232	14.35	2
0	10268	14.4	2
0	10269	14.4	2
0	10270	14.4	2
0	10271	14.4	2
0	10272	14.4	2
0	10273	14.4	2
0	10274	14.4	2
0	10275	14.4	2
0	10317	14.45	2
0	10318	14.45	2
0	10319	14.45	2
0	10320	14.45	2
0	10357	14.5	2
0	10358	14.5	2
0	10359	14.5	2
0	10360	14.5	2
0	10361	14.5	2
0	10362	14.5	2
0	10363	14.5	2
0	10364	14.5	2
0	10403	14.55	2
0	10404	14.55	2
0	10405	14.55	2
0	10406	14.55	2
0	10426	14.6	2
0	10427	14.6	2
0	10428	14.6	2
0	10429	14.6	2
0	10430	14.6	2
0	10431	14.6	2
0	10432	14.6	2
0	10433	14.6	2
0	10450	14.65	2
0	10451	14.65	2
0	10452	14.65	2
0	10453	14.65	2
0	10462	14.7	2
0	10463	14.7	2
0	10464	14.7	2
0	10465	14.7	2
0	10466	14.7	2
0	10467	14.7	2
0	10468	14.7	2
0	10469	14.7	2
0	10489	14.75	2
0	10490	14.75	2
0	10491	14.75	2
0	10492	14.75	2
0	10501	14.8	2
0	10502	14.8	2
0	10503	14.8	2
0	10504	14.8	2
0	10505	14.8	2
0	10506	14.8	2
0	10507	14.8	2
0	10508	14.8	2
0	10525	14.85	2
0	10526	14.85	2
0	10527	14.85	2
0	10528	14.85	2
0	10537	14.9	2
0	10538	14.9	2
0	10539	14.9	2
0	10540	14.9	2
0	10541	14.9	2
0	10542	14.9	2
0	10543	14.9	2
0	10544	14.9	2
0	10605	14.95	2
0	10606	14.95	2
0	10607	14.95	2
0	10608	14.95	2
0	10631	15	2
0	10632	15	2
0	10633	15	2
0	10634	15	2
0	10635	15	2
0	10636	15	2
0	10637	15	2
0	10638	15	2
0	10656	15.05	2
0	10657	15.05	2
0	10658	15.05	2
0	10659	15.05	2
0	10681	15.1	2
0	10682	15.1	2
0	10683	15.1	2
0	10684	15.1	2
0	10685	15.1	2
0	10686	15.1	2
0	10687	15.1	2
0	10688	15.1	2
0	10708	15.15	2
0	10709	15.15	2
0	10710	15.15	2
0	10711	15.15	2
0	10720	15.2	2
0	10721	15.2	2
0	10722	15.2	2
0	10723	15.2	2
0	10724	15.2	2
0	10725	15.2	2
0	10726	15.2	2
0	10727	15.2	2
0	10744	15.25	2
0	10745	15.25	2
0	10746	15.25	2
0	10747	15.25	2
0	10756	15.3	2
0	10757	15.3	2
0	10758	15.3	2
0	10759	15.3	2
0	10760	15.3	2
0	10761	15.3	2
0	10762	15.3	2
0	10763	15.3	2
0	10783	15.35	2
0	10784	15.35	2
0	10785	15.35	2
0	10786	15.35	2
0	10795	15.4	2
0	10796	15.4	2
0	10797	15.4	2
0	10798	15.4	2
0	10799	15.4	2
0	10800	15.4	2
0	10801	15.4	2
0	10802	15.4	2
0	10819	15.45	2
0	10820	15.45	2
0	10821	15.45	2
0	10822	15.45	2
0	10834	15.5	2
0	10835	15.5	2
0	10836	15.5	2
0	10837	15.5	2
0	10838	15.5	2
0	10839	15.5	2
0	10840	15.5	2
0	10841	15.5	2
0	10858	15.55	2
0	10859	15.55	2
0	10860	15.55	2
0	10861	15.55	2
0	10870	15.6	2
0	10871	15.6	2
0	10872	15.6	2
0	10873	15.6	2
0	10874	15.6	2
0	10875	15.6	2
0	10876	15.6	2
0	10877	15.6	2
0	10894	15.65	2
0	10895	15.65	2
0	10896	15.65	2
0	10897	15.65	2
0	10906	15.7	2
0	10907	15.7	2
0	10908	15.7	2
0	10909	15.7	2
0	10910	15.7	2
0	10911	15.7	2
0	10912	15.7	2
0	10913	15.7	2
0	10943	15.75	2
0	10944	15.75	2
0	10945	15.75	2
0	10946	15.75	2
0	10955	15.8	2
0	10956	15.8	2
0	10957	15.8	2
0	10958	15.8	2
0	10959	15.8	2
0	10960	15.8	2
0	10961	15.8	2
0	10962	15.8	2
0	10979	15.85	2
0	10980	15.85	2
0	10981	15.85	2
0	10982	15.85	2
0	11004	15.9	2
0	11005	15.9	2
0	11006	15.9	2
0	11007	15.9	2
0	11008	15.9	2
0	11009	15.9	2
0	11010	15.9	2
0	11011	15.9	2
0	11059	15.95	2
0	11060	15.95	2
0	11061	15.95	2
0	11062	15.95	2
0	11080	16	2
0	11081	16	2
0	11082	16	2
0	11083	16	2
0	11084	16	2
0	11085	16	2
0	11086	16	2
0	11087	16	2
0	11128	16.05	2
0	11129	16.05	2
0	11130	16.05	2
0	11131	16.05	2
0	11143	16.1	2
0	11144	16.1	2
0	11145	16.1	2
0	11146	16.1	2
0	11147	16.1	2
0	11148	16.1	2
0	11149	16.1	2
0	11150	16.1	2
0	11167	16.15	2
0	11168	16.15	2
0	11169	16.15	2
0	11170	16.15	2
0	11179	16.2	2
0	11180	16.2	2
0	11181	16.2	2
0	11182	16.2	2
0	11183	16.2	2
0	11184	16.2	2
0	11185	16.2	2
0	11186	16.2	2
0	11203	16.25	2
0	11204	16.25	2
0	11205	16.25	2
0	11206	16.25	2
0	11218	16.3	2
0	11219	16.3	2
0	11220	16.3	2
0	11221	16.3	2
0	11222	16.3	2
0	11223	16.3	2
0	11224	16.3	2
0	11225	16.3	2
0	11242	16.35	2
0	11243	16.35	2
0	11244	16.35	2
0	11245	16.35	2
0	11254	16.4	2
0	11255	16.4	2
0	11256	16.4	2
0	11257	16.4	2
0	11258	16.4	2
0	11259	16.4	2
0	11260	16.4	2
0	11261	16.4	2
0	11278	16.45	2
0	11279	16.45	2
0	11280	16.45	2
0	11281	16.45	2
0	11290	16.5	2
0	11291	16.5	2
0	11292	16.5	2
0	11293	16.5	2
0	11294	16.5	2
0	11295	16.5	2
0	11296	16.5	2
0	11297	16.5	2
0	11314	16.55	2
0	11315	16.55	2
0	11316	16.55	2
0	11317	16.55	2
0	11329	16.6	2
0	11330	16.6	2
0	11331	16.6	2
0	11332	16.6	2
0	11333	16.6	2
0	11334	16.6	2
0	11335	16.6	2
0	11336	16.6	2
0	11353	16.65	2
0	11354	16.65	2
0	11355	16.65	2
0	11356	16.65	2
0	11375	16.7	2
0	11376	16.7	2
0	11377	16.7	2
0	11378	16.7	2
0	11379	16.7	2
0	11380	16.7	2
0	11381	16.7	2
0	11382	16.7	2
0	11402	16.75	2
0	11403	16.75	2
0	11404	16.75	2
0	11405	16.75	2
0	11414	16.8	2
0	11415	16.8	2
0	11416	16.8	2
0	11417	16.8	2
0	11418	16.8	2
0	11419	16.8	2
0	11420	16.8	2
0	11421	16.8	2
0	11471	16.85	2
0	11472	16.85	2
0	11473	16.85	2
0	11474	16.85	2
0	11507	16.9	2
0	11508	16.9	2
0	11509	16.9	2
0	11510	16.9	2
0	11511	16.9	2
0	11512	16.9	2
0	11513	16.9	2
0	11514	16.9	2
0	11535	16.95	2
0	11536	16.95	2
0	11537	16.95	2
0	11538	16.95	2
0	11547	17	2
0	11548	17	2
0	11549	17	2
0	11550	17	2
0	11551	17	2
0	11552	17	2
0	11553	17	2
0	11554	17	2
0	11571	17.05	2
0	11572	17.05	2
0	11573	17.05	2
0	11574	17.05	2
0	11583	17.1	2
0	11584	17.1	2
0	11585	17.1	2
0	11586	17.1	2
0	11587	17.1	2
0	11588	17.1	2
0	11589	17.1	2
0	11590	17.1	2
0	11607	17.15	2
0	11608	17.15	2
0	11609	17.15	2
0	11610	17.15	2
0	11619	17.2	2
0	11620	17.2	2
0	11621	17.2	2
0	11622	17.2	2
0	11623	17.2	2
0	11624	17.2	2
0	11625	17.2	2
0	11626	17.2	2
0	11656	17.25	2
0	11657	17.25	2
0	11658	17.25	2
0	11659	17.25	2
0	11668	17.3	2
0	11669	17.3	2
0	11670	17.3	2
0	11671	17.3	2
0	11672	17.3	2
0	11673	17.3	2
0	11674	17.3	2
0	11675	17.3	2
0	11692	17.35	2
0	11693	17.35	2
0	11694	17.35	2
0	11695	17.35	2
0	11714	17.4	2
0	11715	17.4	2
0	11716	17.4	2
0	11717	17.4	2
0	11718	17.4	2
0	11719	17.4	2
0	11720	17.4	2
0	11721	17.4	2
0	11738	17.45	2
0	11739	17.45	2
0	11740	17.45	2
0	11741	17.45	2
0	11763	17.5	2
0	11764	17.5	2
0	11765	17.5	2
0	11766	17.5	2
0	11767	17.5	2
0	11768	17.5	2
0	11769	17.5	2
0	11770	17.5	2
0	11821	17.55	2
0	11822	17.55	2
0	11823	17.55	2
0	11824	17.55	2
0	11851	17.6	2
0	11852	17.6	2
0	11853	17.6	2
0	11854	17.6	2
0	11855	17.6	2
0	11856	17.6	2
0	11857	17.6	2
0	11858	17.6	2
0	11888	17.65	2
0	11889	17.65	2
0	11890	17.65	2
0	11891	17.65	2
0	11903	17.7	2
0	11904	17.7	2
0	11905	17.7	2
0	11906	17.7	2
0	11907	17.7	2
0	11908	17.7	2
0	11909	17.7	2
0	11910	17.7	2
0	11927	17.75	2
0	11928	17.75	2
0	11929	17.75	2
0	11930	17.75	2
0	11952	17.8	2
0	11953	17.8	2
0	11954	17.8	2
0	11955	17.8	2
0	11956	17.8	2
0	11957	17.8	2
0	11958	17.8	2
0	11959	17.8	2
0	11976	17.85	2
0	11977	17.85	2
0	11978	17.85	2
0	11979	17.85	2
0	11988	17.9	2
0	11989	17.9	2
0	11990	17.9	2
0	11991	17.9	2
0	11992	17.9	2
0	11993	17.9	2
0	11994	17.9	2
0	11995	17.9	2
0	12041	17.95	2
0	12042	17.95	2
0	12043	17.95	2
0	12044	17.95	2
0	12064	18	2
0	12065	18	2
0	12066	18	2
0	12067	18	2
0	12068	18	2
0	12069	18	2
0	12070	18	2
0	12071	18	2
0	12101	18.05	2
0	12102	18.05	2
0	12103	18.05	2
0	12104	18.05	2
0	12113	18.1	2
0	12114	18.1	2
0	12115	18.1	2
0	12116	18.1	2
0	12117	18.1	2
0	12118	18.1	2
0	12119	18.1	2
0	12120	18.1	2
0	12137	18.15	2
0	12138	18.15	2
0	12139	18.15	2
0	12140	18.15	2
0	12155	18.2	2
0	12156	18.2	2
0	12157	18.2	2
0	12158	18.2	2
0	12159	18.2	2
0	12160	18.2	2
0	12161	18.2	2
0	12162	18.2	2
0	12179	18.25	2
0	12180	18.25	2
0	12181	18.25	2
0	12182	18.25	2
0	12191	18.3	2
0	12192	18.3	2
0	12193	18.3	2
0	12194	18.3	2
0	12195	18.3	2
0	12196	18.3	2
0	12197	18.3	2
0	12198	18.3	2
0	12228	18.35	2
0	12229	18.35	2
0	12230	18.35	2
0	12231	18.35	2
0	12240	18.4	2
0	12241	18.4	2
0	12242	18.4	2
0	12243	18.4	2
0	12244	18.4	2
0	12245	18.4	2
0	12246	18.4	2
0	12247	18.4	2
0	12264	18.45	2
0	12265	18.45	2
0	12266	18.45	2
0	12267	18.45	2
0	12276	18.5	2
0	12277	18.5	2
0	12278	18.5	2
0	12279	18.5	2
0	12280	18.5	2
0	12281	18.5	2
0	12282	18.5	2
0	12283	18.5	2
0	12300	18.55	2
0	12301	18.55	2
0	12302	18.55	2
0	12303	18.55	2
0	12312	18.6	2
0	12313	18.6	2
0	12314	18.6	2
0	12315	18.6	2
0	12316	18.6	2
0	12317	18.6	2
0	12318	18.6	2
0	12319	18.6	2
0	12336	18.65	2
0	12337	18.65	2
0	12338	18.65	2
0	12339	18.65	2
0	12348	18.7	2
0	12349	18.7	2
0	12350	18.7	2
0	12351	18.7	2
0	12352	18.7	2
0	12353	18.7	2
0	12354	18.7	2
0	12355	18.7	2
0	12382	18.75	2
0	12383	18.75	2
0	12384	18.75	2
0	12385	18.75	2
0	12394	18.8	2
0	12395	18.8	2
0	12396	18.8	2
0	12397	18.8	2
0	12398	18.8	2
0	12399	18.8	2
0	12400	18.8	2
0	12401	18.8	2
0	12418	18.85	2
0	12419	18.85	2
0	12420	18.85	2
0	12421	18.85	2
0	12443	18.9	2
0	12444	18.9	2
0	12445	18.9	2
0	12446	18.9	2
0	12447	18.9	2
0	12448	18.9	2
0	12449	18.9	2
0	12450	18.9	2
0	12467	18.95	2
0	12468	18.95	2
0	12469	18.95	2
0	12470	18.95	2
0	12479	19	2
0	12480	19	2
0	12481	19	2
0	12482	19	2
0	12483	19	2
0	12484	19	2
0	12485	19	2
0	12486	19	2
0	12503	19.05	2
0	12504	19.05	2
0	12505	19.05	2
0	12506	19.05	2
0	12515	19.1	2
0	12516	19.1	2
0	12517	19.1	2
0	12518	19.1	2
0	12519	19.1	2
0	12520	19.1	2
0	12521	19.1	2
0	12522	19.1	2
0	12549	19.15	2
0	12550	19.15	2
0	12551	19.15	2
0	12552	19.15	2
0	12561	19.2	2
0	12562	19.2	2
0	12563	19.2	2
0	12564	19.2	2
0	12565	19.2	2
0	12566	19.2	2
0	12567	19.2	2
0	12568	19.2	2
0	12585	19.25	2
0	12586	19.25	2
0	12587	19.25	2
0	12588	19.25	2
0	12620	19.3	2
0	12621	19.3	2
0	12622	19.3	2
0	12623	19.3	2
0	12624	19.3	2
0	12625	19.3	2
0	12626	19.3	2
0	12627	19.3	2
0	12644	19.35	2
0	12645	19.35	2
0	12646	19.35	2
0	12647	19.35	2
0	12656	19.4	2
0	12657	19.4	2
0	12658	19.4	2
0	12659	19.4	2
0	12660	19.4	2
0	12661	19.4	2
0	12662	19.4	2
0	12663	19.4	2
0	12693	19.45	2
0	12694	19.45	2
0	12695	19.45	2
0	12696	19.45	2
0	12705	19.5	2
0	12706	19.5	2
0	12707	19.5	2
0	12708	19.5	2
0	12709	19.5	2
0	12710	19.5	2
0	12711	19.5	2
0	12712	19.5	2
0	12756	19.55	2
0	12757	19.55	2
0	12758	19.55	2
0	12759	19.55	2
0	12778	19.6	2
0	12779	19.6	2
0	12780	19.6	2
0	12781	19.6	2
0	12782	19.6	2
0	12783	19.6	2
0	12784	19.6	2
0	12785	19.6	2
0	12812	19.65	2
0	12813	19.65	2
0	12814	19.65	2
0	12815	19.65	2
0	12860	19.7	2
0	12861	19.7	2
0	12862	19.7	2
0	12863	19.7	2
0	12864	19.7	2
0	12865	19.7	2
0	12866	19.7	2
0	12867	19.7	2
0	12894	19.75	2
0	12895	19.75	2
0	12896	19.75	2
0	12897	19.75	2
0	12919	19.8	2
0	12920	19.8	2
0	12921	19.8	2
0	12922	19.8	2
0	12923	19.8	2
0	12924	19.8	2
0	12925	19.8	2
0	12926	19.8	2
0	13037	19.85	2
0	13038	19.85	2
0	13039	19.85	2
0	13040	19.85	2
0	13074	19.9	2
0	13075	19.9	2
0	13076	19.9	2
0	13077	19.9	2
0	13078	19.9	2
0	13079	19.9	2
0	13080	19.9	2
0	13081	19.9	2
0	13110	19.95	2
0	13111	19.95	2
0	13112	19.95	2
0	13113	19.95	2
0	13153	20	2
0	13154	20	2
0	13155	20	2
0	13156	20	2
0	13157	20	2
0	13158	20	2
0	13159	20	2
0	13160	20	2
0	13196	20.05	2
0	13197	20.05	2
0	13198	20.05	2
0	13199	20.05	2
0	13229	20.1	2
0	13230	20.1	2
0	13231	20.1	2
0	13232	20.1	2
0	13233	20.1	2
0	13234	20.1	2
0	13235	20.1	2
0	13236	20.1	2
0	13272	20.15	2
0	13273	20.15	2
0	13274	20.15	2
0	13275	20.15	2
0	13314	20.2	2
0	13315	20.2	2
0	13316	20.2	2
0	13317	20.2	2
0	13318	20.2	2
0	13319	20.2	2
0	13320	20.2	2
0	13321	20.2	2
0	13376	20.25	2
0	13377	20.25	2
0	13378	20.25	2
0	13379	20.25	2
0	13404	20.3	2
0	13405	20.3	2
0	13406	20.3	2
0	13407	20.3	2
0	13408	20.3	2
0	13409	20.3	2
0	13410	20.3	2
0	13411	20.3	2
0	13441	20.35	2
0	13442	20.35	2
0	13443	20.35	2
0	13444	20.35	2
0	13473	20.4	2
0	13474	20.4	2
0	13475	20.4	2
0	13476	20.4	2
0	13477	20.4	2
0	13478	20.4	2
0	13479	20.4	2
0	13480	20.4	2
0	13497	20.45	2
0	13498	20.45	2
0	13499	20.45	2
0	13500	20.45	2
0	13509	20.5	2
0	13510	20.5	2
0	13511	20.5	2
0	13512	20.5	2
0	13513	20.5	2
0	13514	20.5	2
0	13515	20.5	2
0	13516	20.5	2
0	13546	20.55	2
0	13547	20.55	2
0	13548	20.55	2
0	13549	20.55	2
0	13558	20.6	2
0	13559	20.6	2
0	13560	20.6	2
0	13561	20.6	2
0	13562	20.6	2
0	13563	20.6	2
0	13564	20.6	2
0	13565	20.6	2
0	13582	20.65	2
0	13583	20.65	2
0	13584	20.65	2
0	13585	20.65	2
0	13594	20.7	2
0	13595	20.7	2
0	13596	20.7	2
0	13597	20.7	2
0	13598	20.7	2
0	13599	20.7	2
0	13600	20.7	2
0	13601	20.7	2
0	13621	20.75	2
0	13622	20.75	2
0	13623	20.75	2
0	13624	20.75	2
0	13643	20.8	2
0	13644	20.8	2
0	13645	20.8	2
0	13646	20.8	2
0	13647	20.8	2
0	13648	20.8	2
0	13649	20.8	2
0	13650	20.8	2
0	13667	20.85	2
0	13668	20.85	2
0	13669	20.85	2
0	13670	20.85	2
0	13679	20.9	2
0	13680	20.9	2
0	13681	20.9	2
0	13682	20.9	2
0	13683	20.9	2
0	13684	20.9	2
0	13685	20.9	2
0	13686	20.9	2
0	13726	20.95	2
0	13727	20.95	2
0	13728	20.95	2
0	13729	20.95	2
0	13738	21	2
0	13739	21	2
0	13740	21	2
0	13741	21	2
0	13742	21	2
0	13743	21	2
0	13744	21	2
0	13745	21	2
0	13762	21.05	2
0	13763	21.05	2
0	13764	21.05	2
0	13765	21.05	2
0	13784	21.1	2
0	13785	21.1	2
0	13786	21.1	2
0	13787	21.1	2
0	13788	21.1	2
0	13789	21.1	2
0	13790	21.1	2
0	13791	21.1	2
0	13833	21.15	2
0	13834	21.15	2
0	13835	21.15	2
0	13836	21.15	2
0	13845	21.2	2
0	13846	21.2	2
0	13847	21.2	2
0	13848	21.2	2
0	13849	21.2	2
0	13850	21.2	2
0	13851	21.2	2
0	13852	21.2	2
0	13869	21.25	2
0	13870	21.25	2
0	13871	21.25	2
0	13872	21.25	2
0	13884	21.3	2
0	13885	21.3	2
0	13886	21.3	2
0	13887	21.3	2
0	13888	21.3	2
0	13889	21.3	2
0	13890	21.3	2
0	13891	21.3	2
0	13911	21.35	2
0	13912	21.35	2
0	13913	21.35	2
0	13914	21.35	2
0	13923	21.4	2
0	13924	21.4	2
0	13925	21.4	2
0	13926	21.4	2
0	13927	21.4	2
0	13928	21.4	2
0	13929	21.4	2
0	13930	21.4	2
0	13947	21.45	2
0	13948	21.45	2
0	13949	21.45	2
0	13950	21.45	2
0	13962	21.5	2
0	13963	21.5	2
0	13964	21.5	2
0	13965	21.5	2
0	13966	21.5	2
0	13967	21.5	2
0	13968	21.5	2
0	13969	21.5	2
0	13986	21.55	2
0	13987	21.55	2
0	13988	21.55	2
0	13989	21.55	2
0	13998	21.6	2
0	13999	21.6	2
0	14000	21.6	2
0	14001	21.6	2
0	14002	21.6	2
0	14003	21.6	2
0	14004	21.6	2
0	14005	21.6	2
0	14022	21.65	2
0	14023	21.65	2
0	14024	21.65	2
0	14025	21.65	2
0	14034	21.7	2
0	14035	21.7	2
0	14036	21.7	2
0	14037	21.7	2
0	14038	21.7	2
0	14039	21.7	2
0	14040	21.7	2
0	14041	21.7	2
0	14058	21.75	2
0	14059	21.75	2
0	14060	21.75	2
0	14061	21.75	2
0	14070	21.8	2
0	14071	21.8	2
0	14072	21.8	2
0	14073	21.8	2
0	14074	21.8	2
0	14075	21.8	2
0	14076	21.8	2
0	14077	21.8	2
0	14094	21.85	2
0	14095	21.85	2
0	14096	21.85	2
0	14097	21.85	2
0	14106	21.9	2
0	14107	21.9	2
0	14108	21.9	2
0	14109	21.9	2
0	14110	21.9	2
0	14111	21.9	2
0	14112	21.9	2
0	14113	21.9	2
0	14143	21.95	2
0	14144	21.95	2
0	14145	21.95	2
0	14146	21.95	2
0	14155	22	2
0	14156	22	2
0	14157	22	2
0	14158	22	2
0	14159	22	2
0	14160	22	2
0	14161	22	2
0	14162	22	2
0	14179	22.05	2
0	14180	22.05	2
0	14181	22.05	2
0	14182	22.05	2
0	14204	22.1	2
0	14205	22.1	2
0	14206	22.1	2
0	14207	22.1	2
0	14208	22.1	2
0	14209	22.1	2
0	14210	22.1	2
0	14211	22.1	2
0	14228	22.15	2
0	14229	22.15	2
0	14230	22.15	2
0	14231	22.15	2
0	14240	22.2	2
0	14241	22.2	2
0	14242	22.2	2
0	14243	22.2	2
0	14244	22.2	2
0	14245	22.2	2
0	14246	22.2	2
0	14247	22.2	2
0	14264	22.25	2
0	14265	22.25	2
0	14266	22.25	2
0	14267	22.25	2
0	14276	22.3	2
0	14277	22.3	2
0	14278	22.3	2
0	14279	22.3	2
0	14280	22.3	2
0	14281	22.3	2
0	14282	22.3	2
0	14283	22.3	2
0	14300	22.35	2
0	14301	22.35	2
0	14302	22.35	2
0	14303	22.35	2
0	14312	22.4	2
0	14313	22.4	2
0	14314	22.4	2
0	14315	22.4	2
0	14316	22.4	2
0	14317	22.4	2
0	14318	22.4	2
0	14319	22.4	2
0	14336	22.45	2
0	14337	22.45	2
0	14338	22.45	2
0	14339	22.45	2
0	14351	22.5	2
0	14352	22.5	2
0	14353	22.5	2
0	14354	22.5	2
0	14355	22.5	2
0	14356	22.5	2
0	14357	22.5	2
0	14358	22.5	2
0	14378	22.55	2
0	14379	22.55	2
0	14380	22.55	2
0	14381	22.55	2
0	14390	22.6	2
0	14391	22.6	2
0	14392	22.6	2
0	14393	22.6	2
0	14394	22.6	2
0	14395	22.6	2
0	14396	22.6	2
0	14397	22.6	2
0	14414	22.65	2
0	14415	22.65	2
0	14416	22.65	2
0	14417	22.65	2
0	14439	22.7	2
0	14440	22.7	2
0	14441	22.7	2
0	14442	22.7	2
0	14443	22.7	2
0	14444	22.7	2
0	14445	22.7	2
0	14446	22.7	2
0	14482	22.75	2
0	14483	22.75	2
0	14484	22.75	2
0	14485	22.75	2
0	14494	22.8	2
0	14495	22.8	2
0	14496	22.8	2
0	14497	22.8	2
0	14498	22.8	2
0	14499	22.8	2
0	14500	22.8	2
0	14501	22.8	2
0	14521	22.85	2
0	14522	22.85	2
0	14523	22.85	2
0	14524	22.85	2
0	14536	22.9	2
0	14537	22.9	2
0	14538	22.9	2
0	14539	22.9	2
0	14540	22.9	2
0	14541	22.9	2
0	14542	22.9	2
0	14543	22.9	2
0	14630	22.95	2
0	14631	22.95	2
0	14632	22.95	2
0	14633	22.95	2
0	14669	23	2
0	14670	23	2
0	14671	23	2
0	14672	23	2
0	14673	23	2
0	14674	23	2
0	14675	23	2
0	14676	23	2
0	14712	23.05	2
0	14713	23.05	2
0	14714	23.05	2
0	14715	23.05	2
0	14764	23.1	2
0	14765	23.1	2
0	14766	23.1	2
0	14767	23.1	2
0	14768	23.1	2
0	14769	23.1	2
0	14770	23.1	2
0	14771	23.1	2
0	14807	23.15	2
0	14808	23.15	2
0	14809	23.15	2
0	14810	23.15	2
0	14844	23.2	2
0	14845	23.2	2
0	14846	23.2	2
0	14847	23.2	2
0	14848	23.2	2
0	14849	23.2	2
0	14850	23.2	2
0	14851	23.2	2
0	14868	23.25	2
0	14869	23.25	2
0	14870	23.25	2
0	14871	23.25	2
0	14880	23.3	2
0	14881	23.3	2
0	14882	23.3	2
0	14883	23.3	2
0	14884	23.3	2
0	14885	23.3	2
0	14886	23.3	2
0	14887	23.3	2
0	14904	23.35	2
0	14905	23.35	2
0	14906	23.35	2
0	14907	23.35	2
0	14916	23.4	2
0	14917	23.4	2
0	14918	23.4	2
0	14919	23.4	2
0	14920	23.4	2
0	14921	23.4	2
0	14922	23.4	2
0	14923	23.4	2
0	14940	23.45	2
0	14941	23.45	2
0	14942	23.45	2
0	14943	23.45	2
0	14955	23.5	2
0	14956	23.5	2
0	14957	23.5	2
0	14958	23.5	2
0	14959	23.5	2
0	14960	23.5	2
0	14961	23.5	2
0	14962	23.5	2
0	14979	23.55	2
0	14980	23.55	2
0	14981	23.55	2
0	14982	23.55	2
0	14991	23.6	2
0	14992	23.6	2
0	14993	23.6	2
0	14994	23.6	2
0	14995	23.6	2
0	14996	23.6	2
0	14997	23.6	2
0	14998	23.6	2
0	15015	23.65	2
0	15016	23.65	2
0	15017	23.65	2
0	15018	23.65	2
0	15030	23.7	2
0	15031	23.7	2
0	15032	23.7	2
0	15033	23.7	2
0	15034	23.7	2
0	15035	23.7	2
0	15036	23.7	2
0	15037	23.7	2
0	15054	23.75	2
0	15055	23.75	2
0	15056	23.75	2
0	15057	23.75	2
0	15066	23.8	2
0	15067	23.8	2
0	15068	23.8	2
0	15069	23.8	2
0	15070	23.8	2
0	15071	23.8	2
0	15072	23.8	2
0	15073	23.8	2
0	15090	23.85	2
0	15091	23.85	2
0	15092	23.85	2
0	15093	23.85	2
0	15102	23.9	2
0	15103	23.9	2
0	15104	23.9	2
0	15105	23.9	2
0	15106	23.9	2
0	15107	23.9	2
0	15108	23.9	2
0	15109	23.9	2
0	15126	23.95	2
0	15127	23.95	2
0	15128	23.95	2
0	15129	23.95	2
0	15138	24	2
0	15139	24	2
0	15140	24	2
0	15141	24	2
0	15142	24	2
0	15143	24	2
0	15144	24	2
0	15145	24	2
0	15162	24.05	2
0	15163	24.05	2
0	15164	24.05	2
0	15165	24.05	2
0	15184	24.1	2
0	15185	24.1	2
0	15186	24.1	2
0	15187	24.1	2
0	15188	24.1	2
0	15189	24.1	2
0	15190	24.1	2
0	15191	24.1	2
0	15208	24.15	2
0	15209	24.15	2
0	15210	24.15	2
0	15211	24.15	2
0	15220	24.2	2
0	15221	24.2	2
0	15222	24.2	2
0	15223	24.2	2
0	15224	24.2	2
0	15225	24.2	2
0	15226	24.2	2
0	15227	24.2	2
0	15254	24.25	2
0	15255	24.25	2
0	15256	24.25	2
0	15257	24.25	2
0	15269	24.3	2
0	15270	24.3	2
0	15271	24.3	2
0	15272	24.3	2
0	15273	24.3	2
0	15274	24.3	2
0	15275	24.3	2
0	15276	24.3	2
0	15303	24.35	2
0	15304	24.35	2
0	15305	24.35	2
0	15306	24.35	2
0	15315	24.4	2
0	15316	24.4	2
0	15317	24.4	2
0	15318	24.4	2
0	15319	24.4	2
0	15320	24.4	2
0	15321	24.4	2
0	15322	24.4	2
0	15349	24.45	2
0	15350	24.45	2
0	15351	24.45	2
0	15352	24.45	2
0	15374	24.5	2
0	15375	24.5	2
0	15376	24.5	2
0	15377	24.5	2
0	15378	24.5	2
0	15379	24.5	2
0	15380	24.5	2
0	15381	24.5	2
0	15398	24.55	2
0	15399	24.55	2
0	15400	24.55	2
0	15401	24.55	2
0	15410	24.6	2
0	15411	24.6	2
0	15412	24.6	2
0	15413	24.6	2
0	15414	24.6	2
0	15415	24.6	2
0	15416	24.6	2
0	15417	24.6	2
0	15444	24.65	2
0	15445	24.65	2
0	15446	24.65	2
0	15447	24.65	2
0	15459	24.7	2
0	15460	24.7	2
0	15461	24.7	2
0	15462	24.7	2
0	15463	24.7	2
0	15464	24.7	2
0	15465	24.7	2
0	15466	24.7	2
0	15483	24.75	2
0	15484	24.75	2
0	15485	24.75	2
0	15486	24.75	2
0	15498	24.8	2
0	15499	24.8	2
0	15500	24.8	2
0	15501	24.8	2
0	15502	24.8	2
0	15503	24.8	2
0	15504	24.8	2
0	15505	24.8	2
0	15532	24.85	2
0	15533	24.85	2
0	15534	24.85	2
0	15535	24.85	2
0	15578	24.9	2
0	15579	24.9	2
0	15580	24.9	2
0	15581	24.9	2
0	15582	24.9	2
0	15583	24.9	2
0	15584	24.9	2
0	15585	24.9	2
0	15602	24.95	2
0	15603	24.95	2
0	15604	24.95	2
0	15605	24.95	2
0	15677	25	2
0	15678	25	2
0	15679	25	2
0	15680	25	2
0	15681	25	2
0	15682	25	2
0	15683	25	2
0	15684	25	2
0	15735	25.05	2
0	15736	25.05	2
0	15737	25.05	2
0	15738	25.05	2
0	15794	25.1	2
0	15795	25.1	2
0	15796	25.1	2
0	15797	25.1	2
0	15798	25.1	2
0	15799	25.1	2
0	15800	25.1	2
0	15801	25.1	2
0	15846	25.15	2
0	15847	25.15	2
0	15848	25.15	2
0	15849	25.15	2
0	15880	25.2	2
0	15881	25.2	2
0	15882	25.2	2
0	15883	25.2	2
0	15884	25.2	2
0	15885	25.2	2
0	15886	25.2	2
0	15887	25.2	2
0	15935	25.25	2
0	15936	25.25	2
0	15937	25.25	2
0	15938	25.25	2
0	15957	25.3	2
0	15958	25.3	2
0	15959	25.3	2
0	15960	25.3	2
0	15961	25.3	2
0	15962	25.3	2
0	15963	25.3	2
0	15964	25.3	2
0	15981	25.35	2
0	15982	25.35	2
0	15983	25.35	2
0	15984	25.35	2
0	16006	25.4	2
0	16007	25.4	2
0	16008	25.4	2
0	16009	25.4	2
0	16010	25.4	2
0	16011	25.4	2
0	16012	25.4	2
0	16013	25.4	2
0	16055	25.45	2
0	16056	25.45	2
0	16057	25.45	2
0	16058	25.45	2
0	16067	25.5	2
0	16068	25.5	2
0	16069	25.5	2
0	16070	25.5	2
0	16071	25.5	2
0	16072	25.5	2
0	16073	25.5	2
0	16074	25.5	2
0	16101	25.55	2
0	16102	25.55	2
0	16103	25.55	2
0	16104	25.55	2
0	16126	25.6	2
0	16127	25.6	2
0	16128	25.6	2
0	16129	25.6	2
0	16130	25.6	2
0	16131	25.6	2
0	16132	25.6	2
0	16133	25.6	2
0	16163	25.65	2
0	16164	25.65	2
0	16165	25.65	2
0	16166	25.65	2
0	16175	25.7	2
0	16176	25.7	2
0	16177	25.7	2
0	16178	25.7	2
0	16179	25.7	2
0	16180	25.7	2
0	16181	25.7	2
0	16182	25.7	2
0	16199	25.75	2
0	16200	25.75	2
0	16201	25.75	2
0	16202	25.75	2
0	16214	25.8	2
0	16215	25.8	2
0	16216	25.8	2
0	16217	25.8	2
0	16218	25.8	2
0	16219	25.8	2
0	16220	25.8	2
0	16221	25.8	2
0	16238	25.85	2
0	16239	25.85	2
0	16240	25.85	2
0	16241	25.85	2
0	16250	25.9	2
0	16251	25.9	2
0	16252	25.9	2
0	16253	25.9	2
0	16254	25.9	2
0	16255	25.9	2
0	16256	25.9	2
0	16257	25.9	2
0	16287	25.95	2
0	16288	25.95	2
0	16289	25.95	2
0	16290	25.95	2
0	16302	26	2
0	16303	26	2
0	16304	26	2
0	16305	26	2
0	16306	26	2
0	16307	26	2
0	16308	26	2
0	16309	26	2
0	16326	26.05	2
0	16327	26.05	2
0	16328	26.05	2
0	16329	26.05	2
0	16379	26.1	2
0	16380	26.1	2
0	16381	26.1	2
0	16382	26.1	2
0	16383	26.1	2
0	16384	26.1	2
0	16385	26.1	2
0	16386	26.1	2
0	16418	26.15	2
0	16419	26.15	2
0	16420	26.15	2
0	16421	26.15	2
0	16458	26.2	2
0	16459	26.2	2
0	16460	26.2	2
0	16461	26.2	2
0	16462	26.2	2
0	16463	26.2	2
0	16464	26.2	2
0	16465	26.2	2
0	16505	26.25	2
0	16506	26.25	2
0	16507	26.25	2
0	16508	26.25	2
0	16517	26.3	2
0	16518	26.3	2
0	16519	26.3	2
0	16520	26.3	2
0	16521	26.3	2
0	16522	26.3	2
0	16523	26.3	2
0	16524	26.3	2
0	16541	26.35	2
0	16542	26.35	2
0	16543	26.35	2
0	16544	26.35	2
0	16556	26.4	2
0	16557	26.4	2
0	16558	26.4	2
0	16559	26.4	2
0	16560	26.4	2
0	16561	26.4	2
0	16562	26.4	2
0	16563	26.4	2
0	16580	26.45	2
0	16581	26.45	2
0	16582	26.45	2
0	16583	26.45	2
0	16602	26.5	2
0	16603	26.5	2
0	16604	26.5	2
0	16605	26.5	2
0	16606	26.5	2
0	16607	26.5	2
0	16608	26.5	2
0	16609	26.5	2
0	16626	26.55	2
0	16627	26.55	2
0	16628	26.55	2
0	16629	26.55	2
0	16638	26.6	2
0	16639	26.6	2
0	16640	26.6	2
0	16641	26.6	2
0	16642	26.6	2
0	16643	26.6	2
0	16644	26.6	2
0	16645	26.6	2
0	16700	26.65	2
0	16701	26.65	2
0	16702	26.65	2
0	16703	26.65	2
0	16748	26.7	2
0	16749	26.7	2
0	16750	26.7	2
0	16751	26.7	2
0	16752	26.7	2
0	16753	26.7	2
0	16754	26.7	2
0	16755	26.7	2
0	16777	26.75	2
0	16778	26.75	2
0	16779	26.75	2
0	16780	26.75	2
0	16789	26.8	2
0	16790	26.8	2
0	16791	26.8	2
0	16792	26.8	2
0	16793	26.8	2
0	16794	26.8	2
0	16795	26.8	2
0	16796	26.8	2
0	16813	26.85	2
0	16814	26.85	2
0	16815	26.85	2
0	16816	26.85	2
0	16825	26.9	2
0	16826	26.9	2
0	16827	26.9	2
0	16828	26.9	2
0	16829	26.9	2
0	16830	26.9	2
0	16831	26.9	2
0	16832	26.9	2
0	16849	26.95	2
0	16850	26.95	2
0	16851	26.95	2
0	16852	26.95	2
0	16861	27	2
0	16862	27	2
0	16863	27	2
0	16864	27	2
0	16865	27	2
0	16866	27	2
0	16867	27	2
0	16868	27	2
0	16895	27.05	2
0	16896	27.05	2
0	16897	27.05	2
0	16898	27.05	2
0	16907	27.1	2
0	16908	27.1	2
0	16909	27.1	2
0	16910	27.1	2
0	16911	27.1	2
0	16912	27.1	2
0	16913	27.1	2
0	16914	27.1	2
0	16931	27.15	2
0	16932	27.15	2
0	16933	27.15	2
0	16934	27.15	2
0	16956	27.2	2
0	16957	27.2	2
0	16958	27.2	2
0	16959	27.2	2
0	16960	27.2	2
0	16961	27.2	2
0	16962	27.2	2
0	16963	27.2	2
0	16983	27.25	2
0	16984	27.25	2
0	16985	27.25	2
0	16986	27.25	2
0	16995	27.3	2
0	16996	27.3	2
0	16997	27.3	2
0	16998	27.3	2
0	16999	27.3	2
0	17000	27.3	2
0	17001	27.3	2
0	17002	27.3	2
0	17019	27.35	2
0	17020	27.35	2
0	17021	27.35	2
0	17022	27.35	2
0	17044	27.4	2
0	17045	27.4	2
0	17046	27.4	2
0	17047	27.4	2
0	17048	27.4	2
0	17049	27.4	2
0	17050	27.4	2
0	17051	27.4	2
0	17068	27.45	2
0	17069	27.45	2
0	17070	27.45	2
0	17071	27.45	2
0	17080	27.5	2
0	17081	27.5	2
0	17082	27.5	2
0	17083	27.5	2
0	17084	27.5	2
0	17085	27.5	2
0	17086	27.5	2
0	17087	27.5	2
0	17104	27.55	2
0	17105	27.55	2
0	17106	27.55	2
0	17107	27.55	2
0	17129	27.6	2
0	17130	27.6	2
0	17131	27.6	2
0	17132	27.6	2
0	17133	27.6	2
0	17134	27.6	2
0	17135	27.6	2
0	17136	27.6	2
0	17153	27.65	2
0	17154	27.65	2
0	17155	27.65	2
0	17156	27.65	2
0	17165	27.7	2
0	17166	27.7	2
0	17167	27.7	2
0	17168	27.7	2
0	17169	27.7	2
0	17170	27.7	2
0	17171	27.7	2
0	17172	27.7	2
0	17214	27.75	2
0	17215	27.75	2
0	17216	27.75	2
0	17217	27.75	2
0	17229	27.8	2
0	17230	27.8	2
0	17231	27.8	2
0	17232	27.8	2
0	17233	27.8	2
0	17234	27.8	2
0	17235	27.8	2
0	17236	27.8	2
0	17266	27.85	2
0	17267	27.85	2
0	17268	27.85	2
0	17269	27.85	2
0	17278	27.9	2
0	17279	27.9	2
0	17280	27.9	2
0	17281	27.9	2
0	17282	27.9	2
0	17283	27.9	2
0	17284	27.9	2
0	17285	27.9	2
0	17302	27.95	2
0	17303	27.95	2
0	17304	27.95	2
0	17305	27.95	2
0	17317	28	2
0	17318	28	2
0	17319	28	2
0	17320	28	2
0	17321	28	2
0	17322	28	2
0	17323	28	2
0	17324	28	2
0	17341	28.05	2
0	17342	28.05	2
0	17343	28.05	2
0	17344	28.05	2
0	17353	28.1	2
0	17354	28.1	2
0	17355	28.1	2
0	17356	28.1	2
0	17357	28.1	2
0	17358	28.1	2
0	17359	28.1	2
0	17360	28.1	2
0	17390	28.15	2
0	17391	28.15	2
0	17392	28.15	2
0	17393	28.15	2
0	17402	28.2	2
0	17403	28.2	2
0	17404	28.2	2
0	17405	28.2	2
0	17406	28.2	2
0	17407	28.2	2
0	17408	28.2	2
0	17409	28.2	2
0	17426	28.25	2
0	17427	28.25	2
0	17428	28.25	2
0	17429	28.25	2
0	17441	28.3	2
0	17442	28.3	2
0	17443	28.3	2
0	17444	28.3	2
0	17445	28.3	2
0	17446	28.3	2
0	17447	28.3	2
0	17448	28.3	2
0	17465	28.35	2
0	17466	28.35	2
0	17467	28.35	2
0	17468	28.35	2
0	17477	28.4	2
0	17478	28.4	2
0	17479	28.4	2
0	17480	28.4	2
0	17481	28.4	2
0	17482	28.4	2
0	17483	28.4	2
0	17484	28.4	2
0	17501	28.45	2
0	17502	28.45	2
0	17503	28.45	2
0	17504	28.45	2
0	17513	28.5	2
0	17514	28.5	2
0	17515	28.5	2
0	17516	28.5	2
0	17517	28.5	2
0	17518	28.5	2
0	17519	28.5	2
0	17520	28.5	2
0	17537	28.55	2
0	17538	28.55	2
0	17539	28.55	2
0	17540	28.55	2
0	17549	28.6	2
0	17550	28.6	2
0	17551	28.6	2
0	17552	28.6	2
0	17553	28.6	2
0	17554	28.6	2
0	17555	28.6	2
0	17556	28.6	2
0	17573	28.65	2
0	17574	28.65	2
0	17575	28.65	2
0	17576	28.65	2
0	17585	28.7	2
0	17586	28.7	2
0	17587	28.7	2
0	17588	28.7	2
0	17589	28.7	2
0	17590	28.7	2
0	17591	28.7	2
0	17592	28.7	2
0	17609	28.75	2
0	17610	28.75	2
0	17611	28.75	2
0	17612	28.75	2
0	17634	28.8	2
0	17635	28.8	2
0	17636	28.8	2
0	17637	28.8	2
0	17638	28.8	2
0	17639	28.8	2
0	17640	28.8	2
0	17641	28.8	2
0	17658	28.85	2
0	17659	28.85	2
0	17660	28.85	2
0	17661	28.85	2
0	17670	28.9	2
0	17671	28.9	2
0	17672	28.9	2
0	17673	28.9	2
0	17674	28.9	2
0	17675	28.9	2
0	17676	28.9	2
0	17677	28.9	2
0	17704	28.95	2
0	17705	28.95	2
0	17706	28.95	2
0	17707	28.95	2
0	17719	29	2
0	17720	29	2
0	17721	29	2
0	17722	29	2
0	17723	29	2
0	17724	29	2
0	17725	29	2
0	17726	29	2
0	17743	29.05	2
0	17744	29.05	2
0	17745	29.05	2
0	17746	29.05	2
0	17755	29.1	2
0	17756	29.1	2
0	17757	29.1	2
0	17758	29.1	2
0	17759	29.1	2
0	17760	29.1	2
0	17761	29.1	2
0	17762	29.1	2
0	17779	29.15	2
0	17780	29.15	2
0	17781	29.15	2
0	17782	29.15	2
0	17791	29.2	2
0	17792	29.2	2
0	17793	29.2	2
0	17794	29.2	2
0	17795	29.2	2
0	17796	29.2	2
0	17797	29.2	2
0	17798	29.2	2
0	17815	29.25	2
0	17816	29.25	2
0	17817	29.25	2
0	17818	29.25	2
0	17827	29.3	2
0	17828	29.3	2
0	17829	29.3	2
0	17830	29.3	2
0	17831	29.3	2
0	17832	29.3	2
0	17833	29.3	2
0	17834	29.3	2
0	17854	29.35	2
0	17855	29.35	2
0	17856	29.35	2
0	17857	29.35	2
0	17869	29.4	2
0	17870	29.4	2
0	17871	29.4	2
0	17872	29.4	2
0	17873	29.4	2
0	17874	29.4	2
0	17875	29.4	2
0	17876	29.4	2
0	17896	29.45	2
0	17897	29.45	2
0	17898	29.45	2
0	17899	29.45	2
0	17908	29.5	2
0	17909	29.5	2
0	17910	29.5	2
0	17911	29.5	2
0	17912	29.5	2
0	17913	29.5	2
0	17914	29.5	2
0	17915	29.5	2
0	17932	29.55	2
0	17933	29.55	2
0	17934	29.55	2
0	17935	29.55	2
0	17957	29.6	2
0	17958	29.6	2
0	17959	29.6	2
0	17960	29.6	2
0	17961	29.6	2
0	17962	29.6	2
0	17963	29.6	2
0	17964	29.6	2
0	17981	29.65	2
0	17982	29.65	2
0	17983	29.65	2
0	17984	29.65	2
0	17993	29.7	2
0	17994	29.7	2
0	17995	29.7	2
0	17996	29.7	2
0	17997	29.7	2
0	17998	29.7	2
0	17999	29.7	2
0	18000	29.7	2
0	18030	29.75	2
0	18031	29.75	2
0	18032	29.75	2
0	18033	29.75	2
0	18042	29.8	2
0	18043	29.8	2
0	18044	29.8	2
0	18045	29.8	2
0	18046	29.8	2
0	18047	29.8	2
0	18048	29.8	2
0	18049	29.8	2
0	18066	29.85	2
0	18067	29.85	2
0	18068	29.85	2
0	18069	29.85	2
0	18097	29.9	2
0	18098	29.9	2
0	18099	29.9	2
0	18100	29.9	2
0	18101	29.9	2
0	18102	29.9	2
0	18103	29.9	2
0	18104	29.9	2
0	18121	29.95	2
0	18122	29.95	2
0	18123	29.95	2
0	18124	29.95	2
0	18146	30	2
0	18147	30	2
0	18148	30	2
0	18149	30	2
0	18150	30	2
0	18151	30	2
0	18152	30	2
0	18153	30	2
0	18170	30.05	2
0	18171	30.05	2
0	18172	30.05	2
0	18173	30.05	2
0	18182	30.1	2
0	18183	30.1	2
0	18184	30.1	2
0	18185	30.1	2
0	18186	30.1	2
0	18187	30.1	2
0	18188	30.1	2
0	18189	30.1	2
0	18219	30.15	2
0	18220	30.15	2
0	18221	30.15	2
0	18222	30.15	2
0	18231	30.2	2
0	18232	30.2	2
0	18233	30.2	2
0	18234	30.2	2
0	18235	30.2	2
0	18236	30.2	2
0	18237	30.2	2
0	18238	30.2	2
0	18255	30.25	2
0	18256	30.25	2
0	18257	30.25	2
0	18258	30.25	2
0	18280	30.3	2
0	18281	30.3	2
0	18282	30.3	2
0	18283	30.3	2
0	18284	30.3	2
0	18285	30.3	2
0	18286	30.3	2
0	18287	30.3	2
0	18304	30.35	2
0	18305	30.35	2
0	18306	30.35	2
0	18307	30.35	2
0	18316	30.4	2
0	18317	30.4	2
0	18318	30.4	2
0	18319	30.4	2
0	18320	30.4	2
0	18321	30.4	2
0	18322	30.4	2
0	18323	30.4	2
0	18350	30.45	2
0	18351	30.45	2
0	18352	30.45	2
0	18353	30.45	2
0	18362	30.5	2
0	18363	30.5	2
0	18364	30.5	2
0	18365	30.5	2
0	18366	30.5	2
0	18367	30.5	2
0	18368	30.5	2
0	18369	30.5	2
0	18402	30.55	2
0	18403	30.55	2
0	18404	30.55	2
0	18405	30.55	2
0	18424	30.6	2
0	18425	30.6	2
0	18426	30.6	2
0	18427	30.6	2
0	18428	30.6	2
0	18429	30.6	2
0	18430	30.6	2
0	18431	30.6	2
0	18448	30.65	2
0	18449	30.65	2
0	18450	30.65	2
0	18451	30.65	2
0	18473	30.7	2
0	18474	30.7	2
0	18475	30.7	2
0	18476	30.7	2
0	18477	30.7	2
0	18478	30.7	2
0	18479	30.7	2
0	18480	30.7	2
0	18500	30.75	2
0	18501	30.75	2
0	18502	30.75	2
0	18503	30.75	2
0	18512	30.8	2
0	18513	30.8	2
0	18514	30.8	2
0	18515	30.8	2
0	18516	30.8	2
0	18517	30.8	2
0	18518	30.8	2
0	18519	30.8	2
0	18549	30.85	2
0	18550	30.85	2
0	18551	30.85	2
0	18552	30.85	2
0	18561	30.9	2
0	18562	30.9	2
0	18563	30.9	2
0	18564	30.9	2
0	18565	30.9	2
0	18566	30.9	2
0	18567	30.9	2
0	18568	30.9	2
0	18598	30.95	2
0	18599	30.95	2
0	18600	30.95	2
0	18601	30.95	2
0	18644	31	2
0	18645	31	2
0	18646	31	2
0	18647	31	2
0	18648	31	2
0	18649	31	2
0	18650	31	2
0	18651	31	2
0	18668	31.05	2
0	18669	31.05	2
0	18670	31.05	2
0	18671	31.05	2
0	18696	31.1	2
0	18697	31.1	2
0	18698	31.1	2
0	18699	31.1	2
0	18700	31.1	2
0	18701	31.1	2
0	18702	31.1	2
0	18703	31.1	2
0	18720	31.15	2
0	18721	31.15	2
0	18722	31.15	2
0	18723	31.15	2
0	18732	31.2	2
0	18733	31.2	2
0	18734	31.2	2
0	18735	31.2	2
0	18736	31.2	2
0	18737	31.2	2
0	18738	31.2	2
0	18739	31.2	2
0	18769	31.25	2
0	18770	31.25	2
0	18771	31.25	2
0	18772	31.25	2
0	18781	31.3	2
0	18782	31.3	2
0	18783	31.3	2
0	18784	31.3	2
0	18785	31.3	2
0	18786	31.3	2
0	18787	31.3	2
0	18788	31.3	2
0	18805	31.35	2
0	18806	31.35	2
0	18807	31.35	2
0	18808	31.35	2
0	18830	31.4	2
0	18831	31.4	2
0	18832	31.4	2
0	18833	31.4	2
0	18834	31.4	2
0	18835	31.4	2
0	18836	31.4	2
0	18837	31.4	2
0	18854	31.45	2
0	18855	31.45	2
0	18856	31.45	2
0	18857	31.45	2
0	18866	31.5	2
0	18867	31.5	2
0	18868	31.5	2
0	18869	31.5	2
0	18870	31.5	2
0	18871	31.5	2
0	18872	31.5	2
0	18873	31.5	2
0	18900	31.55	2
0	18901	31.55	2
0	18902	31.55	2
0	18903	31.55	2
0	18912	31.6	2
0	18913	31.6	2
0	18914	31.6	2
0	18915	31.6	2
0	18916	31.6	2
0	18917	31.6	2
0	18918	31.6	2
0	18919	31.6	2
0	18946	31.65	2
0	18947	31.65	2
0	18948	31.65	2
0	18949	31.65	2
0	18958	31.7	2
0	18959	31.7	2
0	18960	31.7	2
0	18961	31.7	2
0	18962	31.7	2
0	18963	31.7	2
0	18964	31.7	2
0	18965	31.7	2
0	18982	31.75	2
0	18983	31.75	2
0	18984	31.75	2
0	18985	31.75	2
0	19004	31.8	2
0	19005	31.8	2
0	19006	31.8	2
0	19007	31.8	2
0	19008	31.8	2
0	19009	31.8	2
0	19010	31.8	2
0	19011	31.8	2
0	19028	31.85	2
0	19029	31.85	2
0	19030	31.85	2
0	19031	31.85	2
0	19040	31.9	2
0	19041	31.9	2
0	19042	31.9	2
0	19043	31.9	2
0	19044	31.9	2
0	19045	31.9	2
0	19046	31.9	2
0	19047	31.9	2
0	19067	31.95	2
0	19068	31.95	2
0	19069	31.95	2
0	19070	31.95	2
0	19079	32	2
0	19080	32	2
0	19081	32	2
0	19082	32	2
0	19083	32	2
0	19084	32	2
0	19085	32	2
0	19086	32	2
0	19103	32.05	2
0	19104	32.05	2
0	19105	32.05	2
0	19106	32.05	2
0	19115	32.1	2
0	19116	32.1	2
0	19117	32.1	2
0	19118	32.1	2
0	19119	32.1	2
0	19120	32.1	2
0	19121	32.1	2
0	19122	32.1	2
0	19165	32.15	2
0	19166	32.15	2
0	19167	32.15	2
0	19168	32.15	2
0	19177	32.2	2
0	19178	32.2	2
0	19179	32.2	2
0	19180	32.2	2
0	19181	32.2	2
0	19182	32.2	2
0	19183	32.2	2
0	19184	32.2	2
0	19201	32.25	2
0	19202	32.25	2
0	19203	32.25	2
0	19204	32.25	2
0	19223	32.3	2
0	19224	32.3	2
0	19225	32.3	2
0	19226	32.3	2
0	19227	32.3	2
0	19228	32.3	2
0	19229	32.3	2
0	19230	32.3	2
0	19257	32.35	2
0	19258	32.35	2
0	19259	32.35	2
0	19260	32.35	2
0	19269	32.4	2
0	19270	32.4	2
0	19271	32.4	2
0	19272	32.4	2
0	19273	32.4	2
0	19274	32.4	2
0	19275	32.4	2
0	19276	32.4	2
0	19293	32.45	2
0	19294	32.45	2
0	19295	32.45	2
0	19296	32.45	2
0	19305	32.5	2
0	19306	32.5	2
0	19307	32.5	2
0	19308	32.5	2
0	19309	32.5	2
0	19310	32.5	2
0	19311	32.5	2
0	19312	32.5	2
0	19332	32.55	2
0	19333	32.55	2
0	19334	32.55	2
0	19335	32.55	2
0	19344	32.6	2
0	19345	32.6	2
0	19346	32.6	2
0	19347	32.6	2
0	19348	32.6	2
0	19349	32.6	2
0	19350	32.6	2
0	19351	32.6	2
0	19371	32.65	2
0	19372	32.65	2
0	19373	32.65	2
0	19374	32.65	2
0	19403	32.7	2
0	19404	32.7	2
0	19405	32.7	2
0	19406	32.7	2
0	19407	32.7	2
0	19408	32.7	2
0	19409	32.7	2
0	19410	32.7	2
0	19427	32.75	2
0	19428	32.75	2
0	19429	32.75	2
0	19430	32.75	2
0	19439	32.8	2
0	19440	32.8	2
0	19441	32.8	2
0	19442	32.8	2
0	19443	32.8	2
0	19444	32.8	2
0	19445	32.8	2
0	19446	32.8	2
0	19544	32.85	2
0	19545	32.85	2
0	19546	32.85	2
0	19547	32.85	2
0	19593	32.9	2
0	19594	32.9	2
0	19595	32.9	2
0	19596	32.9	2
0	19597	32.9	2
0	19598	32.9	2
0	19599	32.9	2
0	19600	32.9	2
0	19648	32.95	2
0	19649	32.95	2
0	19650	32.95	2
0	19651	32.95	2
0	19700	33	2
0	19701	33	2
0	19702	33	2
0	19703	33	2
0	19704	33	2
0	19705	33	2
0	19706	33	2
0	19707	33	2
0	19737	33.05	2
0	19738	33.05	2
0	19739	33.05	2
0	19740	33.05	2
0	19770	33.1	2
0	19771	33.1	2
0	19772	33.1	2
0	19773	33.1	2
0	19774	33.1	2
0	19775	33.1	2
0	19776	33.1	2
0	19777	33.1	2
0	19834	33.15	2
0	19835	33.15	2
0	19836	33.15	2
0	19837	33.15	2
0	19855	33.2	2
0	19856	33.2	2
0	19857	33.2	2
0	19858	33.2	2
0	19859	33.2	2
0	19860	33.2	2
0	19861	33.2	2
0	19862	33.2	2
0	19918	33.25	2
0	19919	33.25	2
0	19920	33.25	2
0	19921	33.25	2
0	19943	33.3	2
0	19944	33.3	2
0	19945	33.3	2
0	19946	33.3	2
0	19947	33.3	2
0	19948	33.3	2
0	19949	33.3	2
0	19950	33.3	2
0	19967	33.35	2
0	19968	33.35	2
0	19969	33.35	2
0	19970	33.35	2
0	19982	33.4	2
0	19983	33.4	2
0	19984	33.4	2
0	19985	33.4	2
0	19986	33.4	2
0	19987	33.4	2
0	19988	33.4	2
0	19989	33.4	2
0	20009	33.45	2
0	20010	33.45	2
0	20011	33.45	2
0	20012	33.45	2
0	20021	33.5	2
0	20022	33.5	2
0	20023	33.5	2
0	20024	33.5	2
0	20025	33.5	2
0	20026	33.5	2
0	20027	33.5	2
0	20028	33.5	2
0	20045	33.55	2
0	20046	33.55	2
0	20047	33.55	2
0	20048	33.55	2
0	20057	33.6	2
0	20058	33.6	2
0	20059	33.6	2
0	20060	33.6	2
0	20061	33.6	2
0	20062	33.6	2
0	20063	33.6	2
0	20064	33.6	2
0	20081	33.65	2
0	20082	33.65	2
0	20083	33.65	2
0	20084	33.65	2
0	20109	33.7	2
0	20110	33.7	2
0	20111	33.7	2
0	20112	33.7	2
0	20113	33.7	2
0	20114	33.7	2
0	20115	33.7	2
0	20116	33.7	2
0	20133	33.75	2
0	20134	33.75	2
0	20135	33.75	2
0	20136	33.75	2
0	20145	33.8	2
0	20146	33.8	2
0	20147	33.8	2
0	20148	33.8	2
0	20149	33.8	2
0	20150	33.8	2
0	20151	33.8	2
0	20152	33.8	2
0	20182	33.85	2
0	20183	33.85	2
0	20184	33.85	2
0	20185	33.85	2
0	20194	33.9	2
0	20195	33.9	2
0	20196	33.9	2
0	20197	33.9	2
0	20198	33.9	2
0	20199	33.9	2
0	20200	33.9	2
0	20201	33.9	2
0	20218	33.95	2
0	20219	33.95	2
0	20220	33.95	2
0	20221	33.95	2
0	20230	34	2
0	20231	34	2
0	20232	34	2
0	20233	34	2
0	20234	34	2
0	20235	34	2
0	20236	34	2
0	20237	34	2
0	20254	34.05	2
0	20255	34.05	2
0	20256	34.05	2
0	20257	34.05	2
0	20266	34.1	2
0	20267	34.1	2
0	20268	34.1	2
0	20269	34.1	2
0	20270	34.1	2
0	20271	34.1	2
0	20272	34.1	2
0	20273	34.1	2
0	20293	34.15	2
0	20294	34.15	2
0	20295	34.15	2
0	20296	34.15	2
0	20305	34.2	2
0	20306	34.2	2
0	20307	34.2	2
0	20308	34.2	2
0	20309	34.2	2
0	20310	34.2	2
0	20311	34.2	2
0	20312	34.2	2
0	20342	34.25	2
0	20343	34.25	2
0	20344	34.25	2
0	20345	34.25	2
0	20354	34.3	2
0	20355	34.3	2
0	20356	34.3	2
0	20357	34.3	2
0	20358	34.3	2
0	20359	34.3	2
0	20360	34.3	2
0	20361	34.3	2
0	20378	34.35	2
0	20379	34.35	2
0	20380	34.35	2
0	20381	34.35	2
0	20403	34.4	2
0	20404	34.4	2
0	20405	34.4	2
0	20406	34.4	2
0	20407	34.4	2
0	20408	34.4	2
0	20409	34.4	2
0	20410	34.4	2
0	20427	34.45	2
0	20428	34.45	2
0	20429	34.45	2
0	20430	34.45	2
0	20439	34.5	2
0	20440	34.5	2
0	20441	34.5	2
0	20442	34.5	2
0	20443	34.5	2
0	20444	34.5	2
0	20445	34.5	2
0	20446	34.5	2
0	20463	34.55	2
0	20464	34.55	2
0	20465	34.55	2
0	20466	34.55	2
0	20475	34.6	2
0	20476	34.6	2
0	20477	34.6	2
0	20478	34.6	2
0	20479	34.6	2
0	20480	34.6	2
0	20481	34.6	2
0	20482	34.6	2
0	20499	34.65	2
0	20500	34.65	2
0	20501	34.65	2
0	20502	34.65	2
0	20511	34.7	2
0	20512	34.7	2
0	20513	34.7	2
0	20514	34.7	2
0	20515	34.7	2
0	20516	34.7	2
0	20517	34.7	2
0	20518	34.7	2
0	20535	34.75	2
0	20536	34.75	2
0	20537	34.75	2
0	20538	34.75	2
0	20550	34.8	2
0	20551	34.8	2
0	20552	34.8	2
0	20553	34.8	2
0	20554	34.8	2
0	20555	34.8	2
0	20556	34.8	2
0	20557	34.8	2
0	20597	34.85	2
0	20598	34.85	2
0	20599	34.85	2
0	20600	34.85	2
0	20609	34.9	2
0	20610	34.9	2
0	20611	34.9	2
0	20612	34.9	2
0	20613	34.9	2
0	20614	34.9	2
0	20615	34.9	2
0	20616	34.9	2
0	20633	34.95	2
0	20634	34.95	2
0	20635	34.95	2
0	20636	34.95	2
0	20706	35	2
0	20707	35	2
0	20708	35	2
0	20709	35	2
0	20710	35	2
0	20711	35	2
0	20712	35	2
0	20713	35	2
0	20757	35.05	2
0	20758	35.05	2
0	20759	35.05	2
0	20760	35.05	2
0	20800	35.1	2
0	20801	35.1	2
0	20802	35.1	2
0	20803	35.1	2
0	20804	35.1	2
0	20805	35.1	2
0	20806	35.1	2
0	20807	35.1	2
0	20858	35.15	2
0	20859	35.15	2
0	20860	35.15	2
0	20861	35.15	2
0	20880	35.2	2
0	20881	35.2	2
0	20882	35.2	2
0	20883	35.2	2
0	20884	35.2	2
0	20885	35.2	2
0	20886	35.2	2
0	20887	35.2	2
0	20910	35.25	2
0	20911	35.25	2
0	20912	35.25	2
0	20913	35.25	2
0	20922	35.3	2
0	20923	35.3	2
0	20924	35.3	2
0	20925	35.3	2
0	20926	35.3	2
0	20927	35.3	2
0	20928	35.3	2
0	20929	35.3	2
0	20946	35.35	2
0	20947	35.35	2
0	20948	35.35	2
0	20949	35.35	2
0	20971	35.4	2
0	20972	35.4	2
0	20973	35.4	2
0	20974	35.4	2
0	20975	35.4	2
0	20976	35.4	2
0	20977	35.4	2
0	20978	35.4	2
0	20995	35.45	2
0	20996	35.45	2
0	20997	35.45	2
0	20998	35.45	2
0	21007	35.5	2
0	21008	35.5	2
0	21009	35.5	2
0	21010	35.5	2
0	21011	35.5	2
0	21012	35.5	2
0	21013	35.5	2
0	21014	35.5	2
0	21073	35.55	2
0	21074	35.55	2
0	21075	35.55	2
0	21076	35.55	2
0	21106	35.6	2
0	21107	35.6	2
0	21108	35.6	2
0	21109	35.6	2
0	21110	35.6	2
0	21111	35.6	2
0	21112	35.6	2
0	21113	35.6	2
0	21146	35.65	2
0	21147	35.65	2
0	21148	35.65	2
0	21149	35.65	2
0	21158	35.7	2
0	21159	35.7	2
0	21160	35.7	2
0	21161	35.7	2
0	21162	35.7	2
0	21163	35.7	2
0	21164	35.7	2
0	21165	35.7	2
0	21195	35.75	2
0	21196	35.75	2
0	21197	35.75	2
0	21198	35.75	2
0	21207	35.8	2
0	21208	35.8	2
0	21209	35.8	2
0	21210	35.8	2
0	21211	35.8	2
0	21212	35.8	2
0	21213	35.8	2
0	21214	35.8	2
0	21231	35.85	2
0	21232	35.85	2
0	21233	35.85	2
0	21234	35.85	2
0	21256	35.9	2
0	21257	35.9	2
0	21258	35.9	2
0	21259	35.9	2
0	21260	35.9	2
0	21261	35.9	2
0	21262	35.9	2
0	21263	35.9	2
0	21283	35.95	2
0	21284	35.95	2
0	21285	35.95	2
0	21286	35.95	2
0	21308	36	2
0	21309	36	2
0	21310	36	2
0	21311	36	2
0	21312	36	2
0	21313	36	2
0	21314	36	2
0	21315	36	2
0	21332	36.05	2
0	21333	36.05	2
0	21334	36.05	2
0	21335	36.05	2
0	21344	36.1	2
0	21345	36.1	2
0	21346	36.1	2
0	21347	36.1	2
0	21348	36.1	2
0	21349	36.1	2
0	21350	36.1	2
0	21351	36.1	2
0	21371	36.15	2
0	21372	36.15	2
0	21373	36.15	2
0	21374	36.15	2
0	21383	36.2	2
0	21384	36.2	2
0	21385	36.2	2
0	21386	36.2	2
0	21387	36.2	2
0	21388	36.2	2
0	21389	36.2	2
0	21390	36.2	2
0	21407	36.25	2
0	21408	36.25	2
0	21409	36.25	2
0	21410	36.25	2
0	21432	36.3	2
0	21433	36.3	2
0	21434	36.3	2
0	21435	36.3	2
0	21436	36.3	2
0	21437	36.3	2
0	21438	36.3	2
0	21439	36.3	2
0	21456	36.35	2
0	21457	36.35	2
0	21458	36.35	2
0	21459	36.35	2
0	21468	36.4	2
0	21469	36.4	2
0	21470	36.4	2
0	21471	36.4	2
0	21472	36.4	2
0	21473	36.4	2
0	21474	36.4	2
0	21475	36.4	2
0	21515	36.45	2
0	21516	36.45	2
0	21517	36.45	2
0	21518	36.45	2
0	21527	36.5	2
0	21528	36.5	2
0	21529	36.5	2
0	21530	36.5	2
0	21531	36.5	2
0	21532	36.5	2
0	21533	36.5	2
0	21534	36.5	2
0	21551	36.55	2
0	21552	36.55	2
0	21553	36.55	2
0	21554	36.55	2
0	21576	36.6	2
0	21577	36.6	2
0	21578	36.6	2
0	21579	36.6	2
0	21580	36.6	2
0	21581	36.6	2
0	21582	36.6	2
0	21583	36.6	2
0	21600	36.65	2
0	21601	36.65	2
0	21602	36.65	2
0	21603	36.65	2
0	21612	36.7	2
0	21613	36.7	2
0	21614	36.7	2
0	21615	36.7	2
0	21616	36.7	2
0	21617	36.7	2
0	21618	36.7	2
0	21619	36.7	2
0	21636	36.75	2
0	21637	36.75	2
0	21638	36.75	2
0	21639	36.75	2
0	21648	36.8	2
0	21649	36.8	2
0	21650	36.8	2
0	21651	36.8	2
0	21652	36.8	2
0	21653	36.8	2
0	21654	36.8	2
0	21655	36.8	2
0	21685	36.85	2
0	21686	36.85	2
0	21687	36.85	2
0	21688	36.85	2
0	21697	36.9	2
0	21698	36.9	2
0	21699	36.9	2
0	21700	36.9	2
0	21701	36.9	2
0	21702	36.9	2
0	21703	36.9	2
0	21704	36.9	2
0	21721	36.95	2
0	21722	36.95	2
0	21723	36.95	2
0	21724	36.95	2
0	21746	37	2
0	21747	37	2
0	21748	37	2
0	21749	37	2
0	21750	37	2
0	21751	37	2
0	21752	37	2
0	21753	37	2
0	21770	37.05	2
0	21771	37.05	2
0	21772	37.05	2
0	21773	37.05	2
0	21782	37.1	2
0	21783	37.1	2
0	21784	37.1	2
0	21785	37.1	2
0	21786	37.1	2
0	21787	37.1	2
0	21788	37.1	2
0	21789	37.1	2
0	21809	37.15	2
0	21810	37.15	2
0	21811	37.15	2
0	21812	37.15	2
0	21821	37.2	2
0	21822	37.2	2
0	21823	37.2	2
0	21824	37.2	2
0	21825	37.2	2
0	21826	37.2	2
0	21827	37.2	2
0	21828	37.2	2
0	21845	37.25	2
0	21846	37.25	2
0	21847	37.25	2
0	21848	37.25	2
0	21857	37.3	2
0	21858	37.3	2
0	21859	37.3	2
0	21860	37.3	2
0	21861	37.3	2
0	21862	37.3	2
0	21863	37.3	2
0	21864	37.3	2
0	21881	37.35	2
0	21882	37.35	2
0	21883	37.35	2
0	21884	37.35	2
0	21906	37.4	2
0	21907	37.4	2
0	21908	37.4	2
0	21909	37.4	2
0	21910	37.4	2
0	21911	37.4	2
0	21912	37.4	2
0	21913	37.4	2
0	21930	37.45	2
0	21931	37.45	2
0	21932	37.45	2
0	21933	37.45	2
0	21942	37.5	2
0	21943	37.5	2
0	21944	37.5	2
0	21945	37.5	2
0	21946	37.5	2
0	21947	37.5	2
0	21948	37.5	2
0	21949	37.5	2
0	21992	37.55	2
0	21993	37.55	2
0	21994	37.55	2
0	21995	37.55	2
0	22007	37.6	2
0	22008	37.6	2
0	22009	37.6	2
0	22010	37.6	2
0	22011	37.6	2
0	22012	37.6	2
0	22013	37.6	2
0	22014	37.6	2
0	22031	37.65	2
0	22032	37.65	2
0	22033	37.65	2
0	22034	37.65	2
0	22046	37.7	2
0	22047	37.7	2
0	22048	37.7	2
0	22049	37.7	2
0	22050	37.7	2
0	22051	37.7	2
0	22052	37.7	2
0	22053	37.7	2
0	22095	37.75	2
0	22096	37.75	2
0	22097	37.75	2
0	22098	37.75	2
0	22107	37.8	2
0	22108	37.8	2
0	22109	37.8	2
0	22110	37.8	2
0	22111	37.8	2
0	22112	37.8	2
0	22113	37.8	2
0	22114	37.8	2
0	22131	37.85	2
0	22132	37.85	2
0	22133	37.85	2
0	22134	37.85	2
0	22143	37.9	2
0	22144	37.9	2
0	22145	37.9	2
0	22146	37.9	2
0	22147	37.9	2
0	22148	37.9	2
0	22149	37.9	2
0	22150	37.9	2
0	22180	37.95	2
0	22181	37.95	2
0	22182	37.95	2
0	22183	37.95	2
0	22192	38	2
0	22193	38	2
0	22194	38	2
0	22195	38	2
0	22196	38	2
0	22197	38	2
0	22198	38	2
0	22199	38	2
0	22216	38.05	2
0	22217	38.05	2
0	22218	38.05	2
0	22219	38.05	2
0	22231	38.1	2
0	22232	38.1	2
0	22233	38.1	2
0	22234	38.1	2
0	22235	38.1	2
0	22236	38.1	2
0	22237	38.1	2
0	22238	38.1	2
0	22268	38.15	2
0	22269	38.15	2
0	22270	38.15	2
0	22271	38.15	2
0	22293	38.2	2
0	22294	38.2	2
0	22295	38.2	2
0	22296	38.2	2
0	22297	38.2	2
0	22298	38.2	2
0	22299	38.2	2
0	22300	38.2	2
0	22317	38.25	2
0	22318	38.25	2
0	22319	38.25	2
0	22320	38.25	2
0	22342	38.3	2
0	22343	38.3	2
0	22344	38.3	2
0	22345	38.3	2
0	22346	38.3	2
0	22347	38.3	2
0	22348	38.3	2
0	22349	38.3	2
0	22369	38.35	2
0	22370	38.35	2
0	22371	38.35	2
0	22372	38.35	2
0	22381	38.4	2
0	22382	38.4	2
0	22383	38.4	2
0	22384	38.4	2
0	22385	38.4	2
0	22386	38.4	2
0	22387	38.4	2
0	22388	38.4	2
0	22405	38.45	2
0	22406	38.45	2
0	22407	38.45	2
0	22408	38.45	2
0	22417	38.5	2
0	22418	38.5	2
0	22419	38.5	2
0	22420	38.5	2
0	22421	38.5	2
0	22422	38.5	2
0	22423	38.5	2
0	22424	38.5	2
0	22441	38.55	2
0	22442	38.55	2
0	22443	38.55	2
0	22444	38.55	2
0	22453	38.6	2
0	22454	38.6	2
0	22455	38.6	2
0	22456	38.6	2
0	22457	38.6	2
0	22458	38.6	2
0	22459	38.6	2
0	22460	38.6	2
0	22477	38.65	2
0	22478	38.65	2
0	22479	38.65	2
0	22480	38.65	2
0	22492	38.7	2
0	22493	38.7	2
0	22494	38.7	2
0	22495	38.7	2
0	22496	38.7	2
0	22497	38.7	2
0	22498	38.7	2
0	22499	38.7	2
0	22516	38.75	2
0	22517	38.75	2
0	22518	38.75	2
0	22519	38.75	2
0	22528	38.8	2
0	22529	38.8	2
0	22530	38.8	2
0	22531	38.8	2
0	22532	38.8	2
0	22533	38.8	2
0	22534	38.8	2
0	22535	38.8	2
0	22552	38.85	2
0	22553	38.85	2
0	22554	38.85	2
0	22555	38.85	2
0	22564	38.9	2
0	22565	38.9	2
0	22566	38.9	2
0	22567	38.9	2
0	22568	38.9	2
0	22569	38.9	2
0	22570	38.9	2
0	22571	38.9	2
0	22588	38.95	2
0	22589	38.95	2
0	22590	38.95	2
0	22591	38.95	2
0	22600	39	2
0	22601	39	2
0	22602	39	2
0	22603	39	2
0	22604	39	2
0	22605	39	2
0	22606	39	2
0	22607	39	2
0	22624	39.05	2
0	22625	39.05	2
0	22626	39.05	2
0	22627	39.05	2
0	22636	39.1	2
0	22637	39.1	2
0	22638	39.1	2
0	22639	39.1	2
0	22640	39.1	2
0	22641	39.1	2
0	22642	39.1	2
0	22643	39.1	2
0	22670	39.15	2
0	22671	39.15	2
0	22672	39.15	2
0	22673	39.15	2
0	22682	39.2	2
0	22683	39.2	2
0	22684	39.2	2
0	22685	39.2	2
0	22686	39.2	2
0	22687	39.2	2
0	22688	39.2	2
0	22689	39.2	2
0	22706	39.25	2
0	22707	39.25	2
0	22708	39.25	2
0	22709	39.25	2
0	22721	39.3	2
0	22722	39.3	2
0	22723	39.3	2
0	22724	39.3	2
0	22725	39.3	2
0	22726	39.3	2
0	22727	39.3	2
0	22728	39.3	2
0	22745	39.35	2
0	22746	39.35	2
0	22747	39.35	2
0	22748	39.35	2
0	22757	39.4	2
0	22758	39.4	2
0	22759	39.4	2
0	22760	39.4	2
0	22761	39.4	2
0	22762	39.4	2
0	22763	39.4	2
0	22764	39.4	2
0	22781	39.45	2
0	22782	39.45	2
0	22783	39.45	2
0	22784	39.45	2
0	22793	39.5	2
0	22794	39.5	2
0	22795	39.5	2
0	22796	39.5	2
0	22797	39.5	2
0	22798	39.5	2
0	22799	39.5	2
0	22800	39.5	2
0	22827	39.55	2
0	22828	39.55	2
0	22829	39.55	2
0	22830	39.55	2
0	22839	39.6	2
0	22840	39.6	2
0	22841	39.6	2
0	22842	39.6	2
0	22843	39.6	2
0	22844	39.6	2
0	22845	39.6	2
0	22846	39.6	2
0	22863	39.65	2
0	22864	39.65	2
0	22865	39.65	2
0	22866	39.65	2
0	22888	39.7	2
0	22889	39.7	2
0	22890	39.7	2
0	22891	39.7	2
0	22892	39.7	2
0	22893	39.7	2
0	22894	39.7	2
0	22895	39.7	2
0	22912	39.75	2
0	22913	39.75	2
0	22914	39.75	2
0	22915	39.75	2
0	22937	39.8	2
0	22938	39.8	2
0	22939	39.8	2
0	22940	39.8	2
0	22941	39.8	2
0	22942	39.8	2
0	22943	39.8	2
0	22944	39.8	2
0	22961	39.85	2
0	22962	39.85	2
0	22963	39.85	2
0	22964	39.85	2
0	22986	39.9	2
0	22987	39.9	2
0	22988	39.9	2
0	22989	39.9	2
0	22990	39.9	2
0	22991	39.9	2
0	22992	39.9	2
0	22993	39.9	2
0	23013	39.95	2
0	23014	39.95	2
0	23015	39.95	2
0	23016	39.95	2
0	23025	40	2
0	23026	40	2
0	23027	40	2
0	23028	40	2
0	23029	40	2
0	23030	40	2
0	23031	40	2
0	23032	40	2
0	23062	40.05	2
0	23063	40.05	2
0	23064	40.05	2
0	23065	40.05	2
0	23077	40.1	2
0	23078	40.1	2
0	23079	40.1	2
0	23080	40.1	2
0	23081	40.1	2
0	23082	40.1	2
0	23083	40.1	2
0	23084	40.1	2
0	23101	40.15	2
0	23102	40.15	2
0	23103	40.15	2
0	23104	40.15	2
0	23113	40.2	2
0	23114	40.2	2
0	23115	40.2	2
0	23116	40.2	2
0	23117	40.2	2
0	23118	40.2	2
0	23119	40.2	2
0	23120	40.2	2
0	23137	40.25	2
0	23138	40.25	2
0	23139	40.25	2
0	23140	40.25	2
0	23149	40.3	2
0	23150	40.3	2
0	23151	40.3	2
0	23152	40.3	2
0	23153	40.3	2
0	23154	40.3	2
0	23155	40.3	2
0	23156	40.3	2
0	23173	40.35	2
0	23174	40.35	2
0	23175	40.35	2
0	23176	40.35	2
0	23185	40.4	2
0	23186	40.4	2
0	23187	40.4	2
0	23188	40.4	2
0	23189	40.4	2
0	23190	40.4	2
0	23191	40.4	2
0	23192	40.4	2
0	23219	40.45	2
0	23220	40.45	2
0	23221	40.45	2
0	23222	40.45	2
0	23231	40.5	2
0	23232	40.5	2
0	23233	40.5	2
0	23234	40.5	2
0	23235	40.5	2
0	23236	40.5	2
0	23237	40.5	2
0	23238	40.5	2
0	23255	40.55	2
0	23256	40.55	2
0	23257	40.55	2
0	23258	40.55	2
0	23270	40.6	2
0	23271	40.6	2
0	23272	40.6	2
0	23273	40.6	2
0	23274	40.6	2
0	23275	40.6	2
0	23276	40.6	2
0	23277	40.6	2
0	23294	40.65	2
0	23295	40.65	2
0	23296	40.65	2
0	23297	40.65	2
0	23306	40.7	2
0	23307	40.7	2
0	23308	40.7	2
0	23309	40.7	2
0	23310	40.7	2
0	23311	40.7	2
0	23312	40.7	2
0	23313	40.7	2
0	23343	40.75	2
0	23344	40.75	2
0	23345	40.75	2
0	23346	40.75	2
0	23355	40.8	2
0	23356	40.8	2
0	23357	40.8	2
0	23358	40.8	2
0	23359	40.8	2
0	23360	40.8	2
0	23361	40.8	2
0	23362	40.8	2
0	23379	40.85	2
0	23380	40.85	2
0	23381	40.85	2
0	23382	40.85	2
0	23394	40.9	2
0	23395	40.9	2
0	23396	40.9	2
0	23397	40.9	2
0	23398	40.9	2
0	23399	40.9	2
0	23400	40.9	2
0	23401	40.9	2
0	23418	40.95	2
0	23419	40.95	2
0	23420	40.95	2
0	23421	40.95	2
0	23430	41	2
0	23431	41	2
0	23432	41	2
0	23433	41	2
0	23434	41	2
0	23435	41	2
0	23436	41	2
0	23437	41	2
0	23454	41.05	2
0	23455	41.05	2
0	23456	41.05	2
0	23457	41.05	2
0	23466	41.1	2
0	23467	41.1	2
0	23468	41.1	2
0	23469	41.1	2
0	23470	41.1	2
0	23471	41.1	2
0	23472	41.1	2
0	23473	41.1	2
0	23490	41.15	2
0	23491	41.15	2
0	23492	41.15	2
0	23493	41.15	2
0	23502	41.2	2
0	23503	41.2	2
0	23504	41.2	2
0	23505	41.2	2
0	23506	41.2	2
0	23507	41.2	2
0	23508	41.2	2
0	23509	41.2	2
0	23526	41.25	2
0	23527	41.25	2
0	23528	41.25	2
0	23529	41.25	2
0	23551	41.3	2
0	23552	41.3	2
0	23553	41.3	2
0	23554	41.3	2
0	23555	41.3	2
0	23556	41.3	2
0	23557	41.3	2
0	23558	41.3	2
0	23575	41.35	2
0	23576	41.35	2
0	23577	41.35	2
0	23578	41.35	2
0	23600	41.4	2
0	23601	41.4	2
0	23602	41.4	2
0	23603	41.4	2
0	23604	41.4	2
0	23605	41.4	2
0	23606	41.4	2
0	23607	41.4	2
0	23637	41.45	2
0	23638	41.45	2
0	23639	41.45	2
0	23640	41.45	2
0	23649	41.5	2
0	23650	41.5	2
0	23651	41.5	2
0	23652	41.5	2
0	23653	41.5	2
0	23654	41.5	2
0	23655	41.5	2
0	23656	41.5	2
0	23676	41.55	2
0	23677	41.55	2
0	23678	41.55	2
0	23679	41.55	2
0	23688	41.6	2
0	23689	41.6	2
0	23690	41.6	2
0	23691	41.6	2
0	23692	41.6	2
0	23693	41.6	2
0	23694	41.6	2
0	23695	41.6	2
0	23712	41.65	2
0	23713	41.65	2
0	23714	41.65	2
0	23715	41.65	2
0	23724	41.7	2
0	23725	41.7	2
0	23726	41.7	2
0	23727	41.7	2
0	23728	41.7	2
0	23729	41.7	2
0	23730	41.7	2
0	23731	41.7	2
0	23748	41.75	2
0	23749	41.75	2
0	23750	41.75	2
0	23751	41.75	2
0	23760	41.8	2
0	23761	41.8	2
0	23762	41.8	2
0	23763	41.8	2
0	23764	41.8	2
0	23765	41.8	2
0	23766	41.8	2
0	23767	41.8	2
0	23787	41.85	2
0	23788	41.85	2
0	23789	41.85	2
0	23790	41.85	2
0	23799	41.9	2
0	23800	41.9	2
0	23801	41.9	2
0	23802	41.9	2
0	23803	41.9	2
0	23804	41.9	2
0	23805	41.9	2
0	23806	41.9	2
0	23823	41.95	2
0	23824	41.95	2
0	23825	41.95	2
0	23826	41.95	2
0	23835	42	2
0	23836	42	2
0	23837	42	2
0	23838	42	2
0	23839	42	2
0	23840	42	2
0	23841	42	2
0	23842	42	2
0	23872	42.05	2
0	23873	42.05	2
0	23874	42.05	2
0	23875	42.05	2
0	23884	42.1	2
0	23885	42.1	2
0	23886	42.1	2
0	23887	42.1	2
0	23888	42.1	2
0	23889	42.1	2
0	23890	42.1	2
0	23891	42.1	2
0	23908	42.15	2
0	23909	42.15	2
0	23910	42.15	2
0	23911	42.15	2
0	23933	42.2	2
0	23934	42.2	2
0	23935	42.2	2
0	23936	42.2	2
0	23937	42.2	2
0	23938	42.2	2
0	23939	42.2	2
0	23940	42.2	2
0	23957	42.25	2
0	23958	42.25	2
0	23959	42.25	2
0	23960	42.25	2
0	23969	42.3	2
0	23970	42.3	2
0	23971	42.3	2
0	23972	42.3	2
0	23973	42.3	2
0	23974	42.3	2
0	23975	42.3	2
0	23976	42.3	2
0	24003	42.35	2
0	24004	42.35	2
0	24005	42.35	2
0	24006	42.35	2
0	24015	42.4	2
0	24016	42.4	2
0	24017	42.4	2
0	24018	42.4	2
0	24019	42.4	2
0	24020	42.4	2
0	24021	42.4	2
0	24022	42.4	2
0	24039	42.45	2
0	24040	42.45	2
0	24041	42.45	2
0	24042	42.45	2
0	24084	42.5	2
0	24085	42.5	2
0	24086	42.5	2
0	24087	42.5	2
0	24088	42.5	2
0	24089	42.5	2
0	24090	42.5	2
0	24091	42.5	2
0	24121	42.55	2
0	24122	42.55	2
0	24123	42.55	2
0	24124	42.55	2
0	24146	42.6	2
0	24147	42.6	2
0	24148	42.6	2
0	24149	42.6	2
0	24150	42.6	2
0	24151	42.6	2
0	24152	42.6	2
0	24153	42.6	2
0	24170	42.65	2
0	24171	42.65	2
0	24172	42.65	2
0	24173	42.65	2
0	24182	42.7	2
0	24183	42.7	2
0	24184	42.7	2
0	24185	42.7	2
0	24186	42.7	2
0	24187	42.7	2
0	24188	42.7	2
0	24189	42.7	2
0	24209	42.75	2
0	24210	42.75	2
0	24211	42.75	2
0	24212	42.75	2
0	24221	42.8	2
0	24222	42.8	2
0	24223	42.8	2
0	24224	42.8	2
0	24225	42.8	2
0	24226	42.8	2
0	24227	42.8	2
0	24228	42.8	2
0	24245	42.85	2
0	24246	42.85	2
0	24247	42.85	2
0	24248	42.85	2
0	24267	42.9	2
0	24268	42.9	2
0	24269	42.9	2
0	24270	42.9	2
0	24271	42.9	2
0	24272	42.9	2
0	24273	42.9	2
0	24274	42.9	2
0	24291	42.95	2
0	24292	42.95	2
0	24293	42.95	2
0	24294	42.95	2
0	24316	43	2
0	24317	43	2
0	24318	43	2
0	24319	43	2
0	24320	43	2
0	24321	43	2
0	24322	43	2
0	24323	43	2
0	24381	43.05	2
0	24382	43.05	2
0	24383	43.05	2
0	24384	43.05	2
0	24402	43.1	2
0	24403	43.1	2
0	24404	43.1	2
0	24405	43.1	2
0	24406	43.1	2
0	24407	43.1	2
0	24408	43.1	2
0	24409	43.1	2
0	24439	43.15	2
0	24440	43.15	2
0	24441	43.15	2
0	24442	43.15	2
0	24461	43.2	2
0	24462	43.2	2
0	24463	43.2	2
0	24464	43.2	2
0	24465	43.2	2
0	24466	43.2	2
0	24467	43.2	2
0	24468	43.2	2
0	24485	43.25	2
0	24486	43.25	2
0	24487	43.25	2
0	24488	43.25	2
0	24497	43.3	2
0	24498	43.3	2
0	24499	43.3	2
0	24500	43.3	2
0	24501	43.3	2
0	24502	43.3	2
0	24503	43.3	2
0	24504	43.3	2
0	24521	43.35	2
0	24522	43.35	2
0	24523	43.35	2
0	24524	43.35	2
0	24533	43.4	2
0	24534	43.4	2
0	24535	43.4	2
0	24536	43.4	2
0	24537	43.4	2
0	24538	43.4	2
0	24539	43.4	2
0	24540	43.4	2
0	24570	43.45	2
0	24571	43.45	2
0	24572	43.45	2
0	24573	43.45	2
0	24582	43.5	2
0	24583	43.5	2
0	24584	43.5	2
0	24585	43.5	2
0	24586	43.5	2
0	24587	43.5	2
0	24588	43.5	2
0	24589	43.5	2
0	24609	43.55	2
0	24610	43.55	2
0	24611	43.55	2
0	24612	43.55	2
0	24664	43.6	2
0	24665	43.6	2
0	24666	43.6	2
0	24667	43.6	2
0	24668	43.6	2
0	24669	43.6	2
0	24670	43.6	2
0	24671	43.6	2
0	24706	43.65	2
0	24707	43.65	2
0	24708	43.65	2
0	24709	43.65	2
0	24718	43.7	2
0	24719	43.7	2
0	24720	43.7	2
0	24721	43.7	2
0	24722	43.7	2
0	24723	43.7	2
0	24724	43.7	2
0	24725	43.7	2
0	24742	43.75	2
0	24743	43.75	2
0	24744	43.75	2
0	24745	43.75	2
0	24754	43.8	2
0	24755	43.8	2
0	24756	43.8	2
0	24757	43.8	2
0	24758	43.8	2
0	24759	43.8	2
0	24760	43.8	2
0	24761	43.8	2
0	24778	43.85	2
0	24779	43.85	2
0	24780	43.85	2
0	24781	43.85	2
0	24790	43.9	2
0	24791	43.9	2
0	24792	43.9	2
0	24793	43.9	2
0	24794	43.9	2
0	24795	43.9	2
0	24796	43.9	2
0	24797	43.9	2
0	24814	43.95	2
0	24815	43.95	2
0	24816	43.95	2
0	24817	43.95	2
[...]
2	4977	5.809150839471	23265
2	4988	5.836830839471	23406
2	5015	5.892190839471	23547
2	5049	5.906030839471	23688
2	5057	5.933710839471	23829
2	5089	5.961390839471	23970
2	5103	5.975230839471	24111
2	5113	5.989070839471	24252
2	5158	6.030590839471	24393
2	5189	6.072110839471	24534
2	5199	6.085950839471	24675
2	5353	6.142270839471	24816
2	5376	6.169950839471	24957
2	5387	6.197630839471	25098
2	5418	6.211470839471	25239
2	5425	6.225310839471	25380
2	5432	6.239150839471	25521
2	5456	6.252990839471	25662
2	5467	6.266830839471	25803
2	5478	6.294510839471	25944
2	5509	6.308350839471	26085
2	5518	6.349870839471	26226
2	5540	6.363710839471	26367
2	5580	6.405230839471	26508
2	5592	6.432910839471	26649
2	5602	6.446750839471	26790
2	5624	6.460590839471	26931
2	5634	6.474430839471	27072
2	5644	6.488270839471	27213
2	5680	6.502110839471	27354
2	5688	6.515950839471	27495
2	5695	6.529790839471	27636
2	5717	6.557470839471	27777
2	5728	6.571310839471	27918
2	5735	6.585150839471	28059
2	5745	6.598990839471	28200
2	5779	6.612830839471	28341
2	5803	6.654350839471	28482
2	5815	6.695870839471	28623
2	6051	7.142590839471	28764
2	6075	7.184110839471	28905
2	6085	7.197950839471	29046
2	6133	7.253310839471	29187
2	6150	7.267150839471	29328
2	6158	7.294830839471	29469
2	6192	7.308670839471	29610
2	6202	7.322510839471	29751
2	6212	7.336350839471	29892
2	6235	7.364030839471	30033
2	6242	7.377870839471	30174
2	6252	7.391710839471	30315
2	6286	7.405550839471	30456
2	6293	7.419390839471	30597
2	6522	7.678750839471	30738
2	6570	7.747950839471	30879
2	6592	7.761790839471	31020
2	6603	7.789470839471	31161
2	6639	7.803310839471	31302
2	6656	7.817150839471	31443
2	6666	7.830990839471	31584
2	6676	7.844830839471	31725
2	6700	7.858670839471	31866
2	6715	7.872510839471	32007
2	6752	7.927870839471	32148
2	6775	7.955550839471	32289
2	6782	7.969390839471	32430
2	6829	8.038590839471	32571
2	6852	8.066270839471	32712
2	6888	8.107790839471	32853
2	6896	8.135470839471	32994
2	6906	8.149310839471	33135
2	6929	8.163150839471	33276
2	6939	8.176990839471	33417
2	6974	8.204670839471	33558
2	6985	8.232350839471	33699
2	7017	8.260030839471	33840
2	7031	8.273870839471	33981
2	7066	8.301550839471	34122
2	7076	8.315390839471	34263
2	7083	8.329230839471	34404
2	7108	8.384590839471	34545
2	7118	8.398430839471	34686
2	7155	8.412270839471	34827
2	7162	8.426110839471	34968
2	7169	8.439950839471	35109
2	7191	8.453790839471	35250
2	7526	9.228750839471	35391
2	7549	9.256430839471	35532
2	7559	9.270270839471	35673
2	7595	9.311790839471	35814
2	7616	9.353310839471	35955
2	7626	9.367150839471	36096
2	8784	11.638430839471	36237
2	8806	11.652270839471	36378
2	8813	11.666110839471	36519
2	8820	11.679950839471	36660
2	8860	11.735310839471	36801
2	8886	11.762990839471	36942
2	8896	11.776830839471	37083
2	8906	11.790670839471	37224
2	8940	11.804510839471	37365
2	8951	11.832190839471	37506
2	8974	11.859870839471	37647
2	8985	11.887550839471	37788
2	9016	11.901390839471	37929
2	9027	11.929070839471	38070
2	9037	11.942910839471	38211
2	9057	11.970590839471	38352
2	9065	11.998270839471	38493
2	9108	12.012110839471	38634
2	9133	12.067470839471	38775
2	9143	12.081310839471	38916
2	9700	13.328750839471	39057
2	9736	13.397950839471	39198
2	9767	13.411790839471	39339
2	9774	13.425630839471	39480
2	9781	13.439470839471	39621
2	10222	14.342590839471	39762
2	10244	14.356430839471	39903
2	10255	14.384110839471	40044
2	10265	14.397950839471	40185
2	10299	14.411790839471	40326
2	10310	14.439470839471	40467
2	10332	14.453310839471	40608
2	10339	14.467150839471	40749
2	10350	14.494830839471	40890
2	10384	14.508670839471	41031
2	10395	14.536350839471	41172
2	10418	14.564030839471	41313
2	10591	14.928750839471	41454
2	10601	14.942590839471	41595
2	11077	15.997950839471	41736
2	11111	16.011790839471	41877
2	11121	16.025630839471	42018
2	11466	16.828750839471	42159
2	11486	16.856430839471	42300
2	11497	16.884110839471	42441
2	11504	16.897950839471	42582
2	11814	17.542590839471	42723
2	11836	17.556430839471	42864
2	11846	17.570270839471	43005
2	12037	17.942590839471	43146
2	12057	17.970270839471	43287
2	12752	19.542590839471	43428
2	12771	19.556430839471	43569
2	12849	19.678750839471	43710
2	12856	19.692590839471	43851
2	12887	19.706430839471	43992
2	13052	19.856430839471	44133
2	13059	19.870270839471	44274
2	13069	19.884110839471	44415
2	13102	19.925630839471	44556
2	13127	19.953310839471	44697
2	13146	19.994830839471	44838
2	13181	20.022510839471	44979
2	13191	20.036350839471	45120
2	13211	20.064030839471	45261
2	13221	20.077870839471	45402
2	13257	20.119390839471	45543
2	13264	20.133230839471	45684
2	13297	20.174750839471	45825
2	13307	20.188590839471	45966
2	13355	20.216270839471	46107
2	13365	20.230110839471	46248
2	13372	20.243950839471	46389
2	13391	20.257790839471	46530
2	13828	21.128750839471	46671
2	14616	22.928750839471	46812
2	14626	22.942590839471	46953
2	14645	22.956430839471	47094
2	14655	22.970270839471	47235
2	14666	22.997950839471	47376
2	14700	23.011790839471	47517
2	14707	23.025630839471	47658
2	14729	23.053310839471	47799
2	14746	23.067150839471	47940
2	14757	23.094830839471	48081
2	14791	23.108670839471	48222
2	14802	23.136350839471	48363
2	14821	23.150190839471	48504
2	14828	23.164030839471	48645
2	14835	23.177870839471	48786
2	15564	24.878750839471	48927
2	15574	24.892590839471	49068
2	15672	24.978750839471	49209
2	15706	25.006430839471	49350
2	15724	25.020270839471	49491
2	15732	25.047950839471	49632
2	15763	25.061790839471	49773
2	15777	25.075630839471	49914
2	15787	25.089470839471	50055
2	15821	25.103310839471	50196
2	15832	25.130990839471	50337
2	15842	25.144830839471	50478
2	15861	25.158670839471	50619
2	15871	25.172510839471	50760
2	15908	25.200190839471	50901
2	15927	25.227870839471	51042
2	15950	25.255550839471	51183
2	16048	25.428750839471	51324
2	16374	26.078750839471	51465
2	16407	26.120270839471	51606
2	16415	26.147950839471	51747
2	16437	26.161790839471	51888
2	16444	26.175630839471	52029
2	16454	26.189470839471	52170
2	16487	26.203310839471	52311
2	16692	26.628750839471	52452
2	16715	26.656430839471	52593
2	16725	26.670270839471	52734
2	16735	26.684110839471	52875
2	16745	26.697950839471	53016
2	17209	27.728750839471	53157
2	18630	30.978750839471	53298
2	18637	30.992590839471	53439
2	19539	32.828750839471	53580
2	19561	32.856430839471	53721
2	19576	32.870270839471	53862
2	19583	32.884110839471	54003
2	19590	32.897950839471	54144
2	19624	32.911790839471	54285
2	19634	32.925630839471	54426
2	19641	32.939470839471	54567
2	19663	32.953310839471	54708
2	19673	32.967150839471	54849
2	19683	32.980990839471	54990
2	19693	32.994830839471	55131
2	19728	33.022510839471	55272
2	19752	33.064030839471	55413
2	19763	33.091710839471	55554
2	19799	33.105550839471	55695
2	19816	33.119390839471	55836
2	19827	33.147070839471	55977
2	19850	33.174750839471	56118
2	19886	33.202430839471	56259
2	19908	33.216270839471	56400
2	20699	34.992590839471	56541
2	20734	35.020270839471	56682
2	20744	35.034110839471	56823
2	20754	35.047950839471	56964
2	20773	35.061790839471	57105
2	20783	35.075630839471	57246
2	20793	35.089470839471	57387
2	20827	35.103310839471	57528
2	20834	35.117150839471	57669
2	20841	35.130990839471	57810
2	20851	35.144830839471	57951
2	20874	35.172510839471	58092
2	20906	35.200190839471	58233
2	21066	35.542590839471	58374
2	21088	35.556430839471	58515
2	21096	35.584110839471	58656
2	21103	35.597950839471	58797
2	21138	35.625630839471	58938
2	22088	37.728750839471	59079
2	24080	42.492590839471	59220
2	24111	42.506430839471	59361
2	24376	43.028750839471	59502
2	24396	43.056430839471	59643
2	24650	43.578750839471	59784
2	24657	43.592590839471	59925
2	24692	43.620270839471	60066
2	24699	43.634110839471	60207
2	25342	45.178750839471	60348
2	25352	45.192590839471	60489
2	25621	45.728750839471	60630
3	1054	1.138430839471	141
3	1077	1.166110839471	282
3	1087	1.179950839471	423
3	1097	1.193790839471	564
3	1128	1.207630839471	705
3	1140	1.249150839471	846
3	1159	1.262990839471	987
3	1169	1.276830839471	1128
3	1176	1.290670839471	1269
3	1210	1.304510839471	1410
3	1220	1.318350839471	1551
3	1241	1.359870839471	1692
3	1251	1.373710839471	1833
3	1286	1.401390839471	1974
3	1297	1.429070839471	2115
3	1304	1.442910839471	2256
3	1327	1.470590839471	2397
3	1363	1.512110839471	2538
3	1370	1.525950839471	2679
3	1391	1.567470839471	2820
3	1402	1.595150839471	2961
3	1436	1.608990839471	3102
3	1446	1.622830839471	3243
3	1456	1.636670839471	3384
3	1491	1.664350839471	3525
3	1498	1.678190839471	3666
3	1508	1.692030839471	3807
3	1543	1.719710839471	3948
3	1565	1.775070839471	4089
3	1575	1.788910839471	4230
3	1608	1.802750839471	4371
3	1620	1.844270839471	4512
3	1642	1.858110839471	4653
3	1650	1.885790839471	4794
3	1682	1.913470839471	4935
3	1690	1.941150839471	5076
3	1709	1.954990839471	5217
3	1720	1.982670839471	5358
3	1730	1.996510839471	5499
3	1762	2.024190839471	5640
3	1785	2.051870839471	5781
3	1795	2.065710839471	5922
3	1805	2.079550839471	6063
3	1843	2.148750839471	6204
3	1866	2.176430839471	6345
3	1873	2.190270839471	6486
3	1904	2.204110839471	6627
3	1915	2.231790839471	6768
3	1925	2.245630839471	6909
3	1944	2.259470839471	7050
3	1954	2.273310839471	7191
3	1990	2.314830839471	7332
3	2000	2.328670839471	7473
3	2023	2.356350839471	7614
3	2033	2.370190839471	7755
3	2043	2.384030839471	7896
3	2053	2.397870839471	8037
3	2085	2.425550839471	8178
3	2095	2.439390839471	8319
3	2118	2.467070839471	8460
3	2128	2.480910839471	8601
3	2138	2.494750839471	8742
3	2525	2.73329348524	8883
3	2532	2.74713348524	9024
3	2554	2.76097348524	9165
3	2561	2.77481348524	9306
3	2571	2.78865348524	9447
3	2607	2.80249348524	9588
3	2625	2.81633348524	9729
3	2635	2.83017348524	9870
3	2645	2.84401348524	10011
3	2669	2.85785348524	10152
3	2679	2.87169348524	10293
3	2687	2.89937348524	10434
3	2722	2.92705348524	10575
3	2773	3.01009348524	10716
3	2784	3.03777348524	10857
3	2806	3.05161348524	10998
3	2815	3.09313348524	11139
3	2850	3.12081348524	11280
3	2860	3.13465348524	11421
3	2870	3.14849348524	11562
3	2892	3.16233348524	11703
3	2899	3.17617348524	11844
3	2936	3.20385348524	11985
3	2957	3.21769348524	12126
3	2967	3.23153348524	12267
3	2998	3.25921348524	12408
3	3037	3.27305348524	12549
3	3072	3.30073348524	12690
3	3082	3.31457348524	12831
3	3092	3.32841348524	12972
3	3102	3.34225348524	13113
3	3128	3.36993348524	13254
3	3161	3.41145348524	13395
3	3168	3.42529348524	13536
3	3191	3.45297348524	13677
3	3229	3.52217348524	13818
3	3236	3.53601348524	13959
3	3257	3.57753348524	14100
3	3292	3.60521348524	14241
3	3301	3.64673348524	14382
3	3323	3.66057348524	14523
3	3333	3.67441348524	14664
3	3340	3.68825348524	14805
3	3371	3.70209348524	14946
3	3382	3.72977348524	15087
3	3392	3.74361348524	15228
3	3414	3.75745348524	15369
3	3421	3.77129348524	15510
3	3431	3.78513348524	15651
3	3438	3.79897348524	15792
3	3486	3.81281348524	15933
3	3500	3.82665348524	16074
3	3523	3.85433348524	16215
3	3533	3.86817348524	16356
3	3544	3.89585348524	16497
3	3578	3.90969348524	16638
3	3603	3.96505348524	16779
3	3637	4.02041348524	16920
3	3648	4.04809348524	17061
3	3667	4.06193348524	17202
3	3678	4.08961348524	17343
3	4246	4.978750839471	17484
3	4283	5.034110839471	17625
3	4306	5.061790839471	17766
3	4316	5.075630839471	17907
3	4326	5.089470839471	18048
3	4360	5.103310839471	18189
3	4370	5.117150839471	18330
3	4381	5.144830839471	18471
3	4404	5.172510839471	18612
3	4436	5.200190839471	18753
3	4447	5.227870839471	18894
3	4457	5.241710839471	19035
3	4479	5.255550839471	19176
3	4489	5.269390839471	19317
3	4500	5.297070839471	19458
3	4531	5.310910839471	19599
3	4538	5.324750839471	19740
3	4548	5.338590839471	19881
3	4578	5.380110839471	20022
3	4588	5.393950839471	20163
3	4621	5.407790839471	20304
3	4629	5.421630839471	20445
3	4654	5.476990839471	20586
3	4664	5.490830839471	20727
3	4700	5.504670839471	20868
3	4710	5.518510839471	21009
3	4720	5.532350839471	21150
3	4730	5.546190839471	21291
3	4752	5.560030839471	21432
3	4789	5.615390839471	21573
3	4799	5.629230839471	21714
3	4809	5.643070839471	21855
3	4832	5.670750839471	21996
3	4842	5.684590839471	22137
3	4852	5.698430839471	22278
3	4886	5.712270839471	22419
3	4893	5.726110839471	22560
3	4903	5.739950839471	22701
3	4925	5.753790839471	22842
3	4936	5.781470839471	22983
3	4946	5.795310839471	23124
3	4977	5.809150839471	23265
3	4988	5.836830839471	23406
3	5015	5.892190839471	23547
3	5049	5.906030839471	23688
3	5057	5.933710839471	23829
3	5089	5.961390839471	23970
3	5103	5.975230839471	24111
3	5113	5.989070839471	24252
3	5158	6.030590839471	24393
3	5189	6.072110839471	24534
3	5199	6.085950839471	24675
3	5353	6.142270839471	24816
3	5376	6.169950839471	24957
3	5387	6.197630839471	25098
3	5418	6.211470839471	25239
3	5425	6.225310839471	25380
3	5432	6.239150839471	25521
3	5456	6.252990839471	25662
3	5467	6.266830839471	25803
3	5478	6.294510839471	25944
3	5509	6.308350839471	26085
3	5518	6.349870839471	26226
3	5540	6.363710839471	26367
3	5580	6.405230839471	26508
3	5592	6.432910839471	26649
3	5602	6.446750839471	26790
3	5624	6.460590839471	26931
3	5634	6.474430839471	27072
3	5644	6.488270839471	27213
3	5680	6.502110839471	27354
3	5688	6.515950839471	27495
3	5695	6.529790839471	27636
3	5717	6.557470839471	27777
3	5728	6.571310839471	27918
3	5735	6.585150839471	28059
3	5745	6.598990839471	28200
3	5779	6.612830839471	28341
3	5803	6.654350839471	28482
3	5815	6.695870839471	28623
3	6051	7.142590839471	28764
3	6075	7.184110839471	28905
3	6085	7.197950839471	29046
3	6133	7.253310839471	29187
3	6150	7.267150839471	29328
3	6158	7.294830839471	29469
3	6192	7.308670839471	29610
3	6202	7.322510839471	29751
3	6212	7.336350839471	29892
3	6235	7.364030839471	30033
3	6242	7.377870839471	30174
3	6252	7.391710839471	30315
3	6286	7.405550839471	30456
3	6293	7.419390839471	30597
3	6522	7.678750839471	30738
3	6570	7.747950839471	30879
3	6592	7.761790839471	31020
3	6603	7.789470839471	31161
3	6639	7.803310839471	31302
3	6656	7.817150839471	31443
3	6666	7.830990839471	31584
3	6676	7.844830839471	31725
3	6700	7.858670839471	31866
3	6715	7.872510839471	32007
3	6752	7.927870839471	32148
3	6775	7.955550839471	32289
3	6782	7.969390839471	32430
3	6829	8.038590839471	32571
3	6852	8.066270839471	32712
3	6888	8.107790839471	32853
3	6896	8.135470839471	32994
3	6906	8.149310839471	33135
3	6929	8.163150839471	33276
3	6939	8.176990839471	33417
3	6974	8.204670839471	33558
3	6985	8.232350839471	33699
3	7017	8.260030839471	33840
3	7031	8.273870839471	33981
3	7066	8.301550839471	34122
3	7076	8.315390839471	34263
3	7083	8.329230839471	34404
3	7108	8.384590839471	34545
3	7118	8.398430839471	34686
3	7155	8.412270839471	34827
3	7162	8.426110839471	34968
3	7169	8.439950839471	35109
3	7191	8.453790839471	35250
3	7526	9.228750839471	35391
3	7549	9.256430839471	35532
3	7559	9.270270839471	35673
3	7595	9.311790839471	35814
3	7616	9.353310839471	35955
3	7626	9.367150839471	36096
3	8784	11.638430839471	36237
3	8806	11.652270839471	36378
3	8813	11.666110839471	36519
3	8820	11.679950839471	36660
3	8860	11.735310839471	36801
3	8886	11.762990839471	36942
3	8896	11.776830839471	37083
3	8906	11.790670839471	37224
3	8940	11.804510839471	37365
3	8951	11.832190839471	37506
3	8974	11.859870839471	37647
3	8985	11.887550839471	37788
3	9016	11.901390839471	37929
3	9027	11.929070839471	38070
3	9037	11.942910839471	38211
3	9057	11.970590839471	38352
3	9065	11.998270839471	38493
3	9108	12.012110839471	38634
3	9133	12.067470839471	38775
3	9143	12.081310839471	38916
3	9700	13.328750839471	39057
3	9736	13.397950839471	39198
3	9767	13.411790839471	39339
3	9774	13.425630839471	39480
3	9781	13.439470839471	39621
3	10222	14.342590839471	39762
3	10244	14.356430839471	39903
3	10255	14.384110839471	40044
3	10265	14.397950839471	40185
3	10299	14.411790839471	40326
3	10310	14.439470839471	40467
3	10332	14.453310839471	40608
3	10339	14.467150839471	40749
3	10350	14.494830839471	40890
3	10384	14.508670839471	41031
3	10395	14.536350839471	41172
3	10418	14.564030839471	41313
3	10591	14.928750839471	41454
3	10601	14.942590839471	41595
3	11077	15.997950839471	41736
3	11111	16.011790839471	41877
3	11121	16.025630839471	42018
3	11466	16.828750839471	42159
3	11486	16.856430839471	42300
3	11497	16.884110839471	42441
3	11504	16.897950839471	42582
3	11814	17.542590839471	42723
3	11836	17.556430839471	42864
3	11846	17.570270839471	43005
3	12037	17.942590839471	43146
3	12057	17.970270839471	43287
3	12752	19.542590839471	43428
3	12771	19.556430839471	43569
3	12849	19.678750839471	43710
3	12856	19.692590839471	43851
3	12887	19.706430839471	43992
3	13052	19.856430839471	44133
3	13059	19.870270839471	44274
3	13069	19.884110839471	44415
3	13102	19.925630839471	44556
3	13127	19.953310839471	44697
3	13146	19.994830839471	44838
3	13181	20.022510839471	44979
3	13191	20.036350839471	45120
3	13211	20.064030839471	45261
3	13221	20.077870839471	45402
3	13257	20.119390839471	45543
3	13264	20.133230839471	45684
3	13297	20.174750839471	45825
3	13307	20.188590839471	45966
3	13355	20.216270839471	46107
3	13365	20.230110839471	46248
3	13372	20.243950839471	46389
3	13391	20.257790839471	46530
3	13828	21.128750839471	46671
3	14616	22.928750839471	46812
3	14626	22.942590839471	46953
3	14645	22.956430839471	47094
3	14655	22.970270839471	47235
3	14666	22.997950839471	47376
3	14700	23.011790839471	47517
3	14707	23.025630839471	47658
3	14729	23.053310839471	47799
3	14746	23.067150839471	47940
3	14757	23.094830839471	48081
3	14791	23.108670839471	48222
3	14802	23.136350839471	48363
3	14821	23.150190839471	48504
3	14828	23.164030839471	48645
3	14835	23.177870839471	48786
3	15564	24.878750839471	48927
3	15574	24.892590839471	49068
3	15672	24.978750839471	49209
3	15706	25.006430839471	49350
3	15724	25.020270839471	49491
3	15732	25.047950839471	49632
3	15763	25.061790839471	49773
3	15777	25.075630839471	49914
3	15787	25.089470839471	50055
3	15821	25.103310839471	50196
3	15832	25.130990839471	50337
3	15842	25.144830839471	50478
3	15861	25.158670839471	50619
3	15871	25.172510839471	50760
3	15908	25.200190839471	50901
3	15927	25.227870839471	51042
3	15950	25.255550839471	51183
3	16048	25.428750839471	51324
3	16374	26.078750839471	51465
3	16407	26.120270839471	51606
3	16415	26.147950839471	51747
3	16437	26.161790839471	51888
3	16444	26.175630839471	52029
3	16454	26.189470839471	52170
3	16487	26.203310839471	52311
3	16692	26.628750839471	52452
3	16715	26.656430839471	52593
3	16725	26.670270839471	52734
3	16735	26.684110839471	52875
3	16745	26.697950839471	53016
3	17209	27.728750839471	53157
3	18630	30.978750839471	53298
3	18637	30.992590839471	53439
3	19539	32.828750839471	53580
3	19561	32.856430839471	53721
3	19576	32.870270839471	53862
3	19583	32.884110839471	54003
3	19590	32.897950839471	54144
3	19624	32.911790839471	54285
3	19634	32.925630839471	54426
3	19641	32.939470839471	54567
3	19663	32.953310839471	54708
3	19673	32.967150839471	54849
3	19683	32.980990839471	54990
3	19693	32.994830839471	55131
3	19728	33.022510839471	55272
3	19752	33.064030839471	55413
3	19763	33.091710839471	55554
3	19799	33.105550839471	55695
3	19816	33.119390839471	55836
3	19827	33.147070839471	55977
3	19850	33.174750839471	56118
3	19886	33.202430839471	56259
3	19908	33.216270839471	56400
3	20699	34.992590839471	56541
3	20734	35.020270839471	56682
3	20744	35.034110839471	56823
3	20754	35.047950839471	56964
3	20773	35.061790839471	57105
3	20783	35.075630839471	57246
3	20793	35.089470839471	57387
3	20827	35.103310839471	57528
3	20834	35.117150839471	57669
3	20841	35.130990839471	57810
3	20851	35.144830839471	57951
3	20874	35.172510839471	58092
3	20906	35.200190839471	58233
3	21066	35.542590839471	58374
3	21088	35.556430839471	58515
3	21096	35.584110839471	58656
3	21103	35.597950839471	58797
3	21138	35.625630839471	58938
3	22088	37.728750839471	59079
3	24080	42.492590839471	59220
3	24111	42.506430839471	59361
3	24376	43.028750839471	59502
3	24396	43.056430839471	59643
3	24650	43.578750839471	59784
3	24657	43.592590839471	59925
3	24692	43.620270839471	60066
3	24699	43.634110839471	60207
3	25342	45.178750839471	60348
3	25352	45.192590839471	60489
3	25621	45.728750839471	60630

