version 2
run B-0-20190908-18:09:42-8285
attr configname B
attr datetime 20190908-18:09:42
attr experiment B
attr inifile SimV2.ini
attr iterationvars ""
attr iterationvarsf ""
attr measurement ""
attr network NetworkTormV2
attr processid 8285
attr repetition 0
attr replication #0
attr resultdir results
attr runnumber 0
attr seedset 0
param **.mobility.traceFile "\"paths/B.movements\""
param **.numNodes 4
param **.wirelessIfc.wirelessRange 35m
param **.bluetoothIfc.wirelessRange 35m
param **.numNodes 2
param **.application.usedRNG 1
param **.application.dataGenerationInterval 1ms
param **.application.dataSizeInBytes 10
param **.application.ttl 999999s
param **application.destinationAddr "\"Wf:00:00:00:00:09\""
param **application.destinationBTAddr "\"Bt:00:00:00:00:09\""
param **application.nodesThatGen true
param **application.nodesGenMsg "\"0\""
param **application.startMultipleMsg true
param **application.numMultipleMsg 100
param **application.hopsListSize 50
param **.routingLayer "\"RoutingLayer\""
param **.routing.maximumCacheSize 5000byte
param **.routing.maximumHopCount 25
param **.routing.useTTL false
param **.neighboring.antiEntropyInterval 200ms
param **.neighboring.maximumRandomBackoffDuration 1s
param **.neighboring.delayPerDataMsg 0.1
param **neighboring.usedRNG 2
param **.neighboring.GWAddr "\"02:00:00:00:00:09\""
param **.neighboring.sendWifiFirst true
param **.neighboring.maxLengthGraph 20
param **.wirelessIfc.wirelessRange 15m
param **.wirelessIfc.neighbourScanInterval 50ms
param **.wirelessIfc.bandwidthBitRate 100000bps
param **.wirelessIfc.wirelessHeaderSize 32byte
param **.wirelessIfc.minSSI -90
param **.bluetoothIfc.wirelessRange 15m
param **.bluetoothIfc.neighbourScanInterval 100ms
param **.bluetoothIfc.bandwidthBitRate 100000bps
param **.bluetoothIfc.wirelessHeaderSize 16byte
param **.bluetoothIfc.minSSI -90
param **.mobilityType "\"BonnMotionMobility\""
param **.mobility.traceFile "\"paths/Moves2.movements\""
param **.mobility.nodeId -1

vector 0 NetworkTormV2 neighbourhoodSize:vector ETV
attr source neighbourhoodSize
vector 1 NetworkTormV2 deliveryRatio:vector ETV
attr source sum(totalDataBytesReceived)/sum(totalDataBytesReceivableByAllNodes)
vector 2 NetworkTormV2 dataBytesReceivedSum:vector ETV
attr source sum(dataBytesReceived)
vector 3 NetworkTormV2 totalBytesReceivedSum:vector ETV
attr source sum(totalBytesReceived)
0	13	0.05	2
0	14	0.05	2
0	15	0.05	2
0	16	0.05	2
0	26	0.1	2
0	27	0.1	2
0	28	0.1	2
0	29	0.1	2
0	30	0.1	2
0	31	0.1	2
0	32	0.1	2
0	33	0.1	2
0	149	0.15	2
0	150	0.15	2
0	151	0.15	2
0	152	0.15	2
0	261	0.2	2
0	262	0.2	2
0	263	0.2	2
0	264	0.2	2
0	265	0.2	2
0	266	0.2	2
0	267	0.2	2
0	268	0.2	2
0	285	0.25	2
0	286	0.25	2
0	287	0.25	2
0	288	0.25	2
0	297	0.3	2
0	298	0.3	2
0	299	0.3	2
0	300	0.3	2
0	301	0.3	2
0	302	0.3	2
0	303	0.3	2
0	304	0.3	2
0	321	0.35	2
0	322	0.35	2
0	323	0.35	2
0	324	0.35	2
0	333	0.4	2
0	334	0.4	2
0	335	0.4	2
0	336	0.4	2
0	337	0.4	2
0	338	0.4	2
0	339	0.4	2
0	340	0.4	2
0	357	0.45	2
0	358	0.45	2
0	359	0.45	2
0	360	0.45	2
0	369	0.5	2
0	370	0.5	2
0	371	0.5	2
0	372	0.5	2
0	373	0.5	2
0	374	0.5	2
0	375	0.5	2
0	376	0.5	2
0	393	0.55	2
0	394	0.55	2
0	395	0.55	2
0	396	0.55	2
0	405	0.6	2
0	406	0.6	2
0	407	0.6	2
0	408	0.6	2
0	409	0.6	2
0	410	0.6	2
0	411	0.6	2
0	412	0.6	2
0	429	0.65	2
0	430	0.65	2
0	431	0.65	2
0	432	0.65	2
0	441	0.7	2
0	442	0.7	2
0	443	0.7	2
0	444	0.7	2
0	445	0.7	2
0	446	0.7	2
0	447	0.7	2
0	448	0.7	2
0	465	0.75	2
0	466	0.75	2
0	467	0.75	2
0	468	0.75	2
0	477	0.8	2
0	478	0.8	2
0	479	0.8	2
0	480	0.8	2
0	481	0.8	2
0	482	0.8	2
0	483	0.8	2
0	484	0.8	2
0	501	0.85	2
0	502	0.85	2
0	503	0.85	2
0	504	0.85	2
0	513	0.9	2
0	514	0.9	2
0	515	0.9	2
0	516	0.9	2
0	517	0.9	2
0	518	0.9	2
0	519	0.9	2
0	520	0.9	2
0	537	0.95	2
0	538	0.95	2
0	539	0.95	2
0	540	0.95	2
0	549	1	2
0	550	1	2
0	551	1	2
0	552	1	2
0	553	1	2
0	554	1	2
0	555	1	2
0	556	1	2
0	573	1.05	2
0	574	1.05	2
0	575	1.05	2
0	576	1.05	2
0	585	1.1	2
0	586	1.1	2
0	587	1.1	2
0	588	1.1	2
0	589	1.1	2
0	590	1.1	2
0	591	1.1	2
0	592	1.1	2
0	1163	1.15	2
0	1164	1.15	2
0	1165	1.15	2
0	1166	1.15	2
0	1271	1.2	2
0	1272	1.2	2
0	1273	1.2	2
0	1274	1.2	2
0	1275	1.2	2
0	1276	1.2	2
0	1277	1.2	2
0	1278	1.2	2
0	1385	1.25	2
0	1386	1.25	2
0	1387	1.25	2
0	1388	1.25	2
0	1487	1.3	2
0	1488	1.3	2
0	1489	1.3	2
0	1490	1.3	2
0	1491	1.3	2
0	1492	1.3	2
0	1493	1.3	2
0	1494	1.3	2
0	1605	1.35	2
0	1606	1.35	2
0	1607	1.35	2
0	1608	1.35	2
0	1893	1.4	2
0	1894	1.4	2
0	1895	1.4	2
0	1896	1.4	2
0	1897	1.4	2
0	1898	1.4	2
0	1899	1.4	2
0	1900	1.4	2
0	2061	1.45	2
0	2062	1.45	2
0	2063	1.45	2
0	2064	1.45	2
0	2227	1.5	2
0	2228	1.5	2
0	2229	1.5	2
0	2230	1.5	2
0	2231	1.5	2
0	2232	1.5	2
0	2233	1.5	2
0	2234	1.5	2
0	2395	1.55	2
0	2396	1.55	2
0	2397	1.55	2
0	2398	1.55	2
0	2690	1.6	2
0	2691	1.6	2
0	2692	1.6	2
0	2693	1.6	2
0	2694	1.6	2
0	2695	1.6	2
0	2696	1.6	2
0	2697	1.6	2
0	2928	1.65	2
0	2929	1.65	2
0	2930	1.65	2
0	2931	1.65	2
0	3184	1.7	2
0	3185	1.7	2
0	3186	1.7	2
0	3187	1.7	2
0	3188	1.7	2
0	3189	1.7	2
0	3190	1.7	2
0	3191	1.7	2
0	3473	1.75	2
0	3474	1.75	2
0	3475	1.75	2
0	3476	1.75	2
0	3797	1.8	2
0	3798	1.8	2
0	3799	1.8	2
0	3800	1.8	2
0	3801	1.8	2
0	3802	1.8	2
0	3803	1.8	2
0	3804	1.8	2
0	4087	1.85	2
0	4088	1.85	2
0	4089	1.85	2
0	4090	1.85	2
0	4339	1.9	2
0	4340	1.9	2
0	4341	1.9	2
0	4342	1.9	2
0	4343	1.9	2
0	4344	1.9	2
0	4345	1.9	2
0	4346	1.9	2
0	4592	1.95	2
0	4593	1.95	2
0	4594	1.95	2
0	4595	1.95	2
0	4798	2	2
0	4799	2	2
0	4800	2	2
0	4801	2	2
0	4802	2	2
0	4803	2	2
0	4804	2	2
0	4805	2	2
0	5002	2.05	2
0	5003	2.05	2
0	5004	2.05	2
0	5005	2.05	2
0	5389	2.1	2
0	5390	2.1	2
0	5391	2.1	2
0	5392	2.1	2
0	5393	2.1	2
0	5394	2.1	2
0	5395	2.1	2
0	5396	2.1	2
0	5586	2.15	2
0	5587	2.15	2
0	5588	2.15	2
0	5589	2.15	2
0	5760	2.2	2
0	5761	2.2	2
0	5762	2.2	2
0	5763	2.2	2
0	5764	2.2	2
0	5765	2.2	2
0	5766	2.2	2
0	5767	2.2	2
0	5982	2.25	2
0	5983	2.25	2
0	5984	2.25	2
0	5985	2.25	2
0	6126	2.3	2
0	6127	2.3	2
0	6128	2.3	2
0	6129	2.3	2
0	6130	2.3	2
0	6131	2.3	2
0	6132	2.3	2
0	6133	2.3	2
0	6296	2.35	2
0	6297	2.35	2
0	6298	2.35	2
0	6299	2.35	2
0	6474	2.4	2
0	6475	2.4	2
0	6476	2.4	2
0	6477	2.4	2
0	6478	2.4	2
0	6479	2.4	2
0	6480	2.4	2
0	6481	2.4	2
0	6685	2.45	2
0	6686	2.45	2
0	6687	2.45	2
0	6688	2.45	2
0	6807	2.5	2
0	6808	2.5	2
0	6809	2.5	2
0	6810	2.5	2
0	6811	2.5	2
0	6812	2.5	2
0	6813	2.5	2
0	6814	2.5	2
0	6934	2.55	2
0	6935	2.55	2
0	6936	2.55	2
0	6937	2.55	2
0	7056	2.6	2
0	7057	2.6	2
0	7058	2.6	2
0	7059	2.6	2
0	7060	2.6	2
0	7061	2.6	2
0	7062	2.6	2
0	7063	2.6	2
0	7080	2.65	2
0	7081	2.65	2
0	7082	2.65	2
0	7083	2.65	2
0	7105	2.7	2
0	7106	2.7	2
0	7107	2.7	2
0	7108	2.7	2
0	7109	2.7	2
0	7110	2.7	2
0	7111	2.7	2
0	7112	2.7	2
0	7155	2.75	2
0	7156	2.75	2
0	7157	2.75	2
0	7158	2.75	2
0	7167	2.8	2
0	7168	2.8	2
0	7169	2.8	2
0	7170	2.8	2
0	7171	2.8	2
0	7172	2.8	2
0	7173	2.8	2
0	7174	2.8	2
0	7230	2.85	2
0	7231	2.85	2
0	7232	2.85	2
0	7233	2.85	2
0	7268	2.9	2
0	7269	2.9	2
0	7270	2.9	2
0	7271	2.9	2
0	7272	2.9	2
0	7273	2.9	2
0	7274	2.9	2
0	7275	2.9	2
0	7292	2.95	2
0	7293	2.95	2
0	7294	2.95	2
0	7295	2.95	2
0	7317	3	2
0	7318	3	2
0	7319	3	2
0	7320	3	2
0	7321	3	2
0	7322	3	2
0	7323	3	2
0	7324	3	2
0	7367	3.05	2
0	7368	3.05	2
0	7369	3.05	2
0	7370	3.05	2
0	7405	3.1	2
0	7406	3.1	2
0	7407	3.1	2
0	7408	3.1	2
0	7409	3.1	2
0	7410	3.1	2
0	7411	3.1	2
0	7412	3.1	2
0	7442	3.15	2
0	7443	3.15	2
0	7444	3.15	2
0	7445	3.15	2
0	7480	3.2	2
0	7481	3.2	2
0	7482	3.2	2
0	7483	3.2	2
0	7484	3.2	2
0	7485	3.2	2
0	7486	3.2	2
0	7487	3.2	2
0	7504	3.25	2
0	7505	3.25	2
0	7506	3.25	2
0	7507	3.25	2
0	7529	3.3	2
0	7530	3.3	2
0	7531	3.3	2
0	7532	3.3	2
0	7533	3.3	2
0	7534	3.3	2
0	7535	3.3	2
0	7536	3.3	2
0	7605	3.35	2
0	7606	3.35	2
0	7607	3.35	2
0	7608	3.35	2
0	7617	3.4	2
0	7618	3.4	2
0	7619	3.4	2
0	7620	3.4	2
0	7621	3.4	2
0	7622	3.4	2
0	7623	3.4	2
0	7624	3.4	2
0	7654	3.45	2
0	7655	3.45	2
0	7656	3.45	2
0	7657	3.45	2
0	7692	3.5	2
0	7693	3.5	2
0	7694	3.5	2
0	7695	3.5	2
0	7696	3.5	2
0	7697	3.5	2
0	7698	3.5	2
0	7699	3.5	2
0	7716	3.55	2
0	7717	3.55	2
0	7718	3.55	2
0	7719	3.55	2
0	7767	3.6	2
0	7768	3.6	2
0	7769	3.6	2
0	7770	3.6	2
0	7771	3.6	2
0	7772	3.6	2
0	7773	3.6	2
0	7774	3.6	2
0	7817	3.65	2
0	7818	3.65	2
0	7819	3.65	2
0	7820	3.65	2
0	7829	3.7	2
0	7830	3.7	2
0	7831	3.7	2
0	7832	3.7	2
0	7833	3.7	2
0	7834	3.7	2
0	7835	3.7	2
0	7836	3.7	2
0	7866	3.75	2
0	7867	3.75	2
0	7868	3.75	2
0	7869	3.75	2
0	7904	3.8	2
0	7905	3.8	2
0	7906	3.8	2
0	7907	3.8	2
0	7908	3.8	2
0	7909	3.8	2
0	7910	3.8	2
0	7911	3.8	2
0	7954	3.85	2
0	7955	3.85	2
0	7956	3.85	2
0	7957	3.85	2
0	7979	3.9	2
0	7980	3.9	2
0	7981	3.9	2
0	7982	3.9	2
0	7983	3.9	2
0	7984	3.9	2
0	7985	3.9	2
0	7986	3.9	2
0	8029	3.95	2
0	8030	3.95	2
0	8031	3.95	2
0	8032	3.95	2
0	8041	4	2
0	8042	4	2
0	8043	4	2
0	8044	4	2
0	8045	4	2
0	8046	4	2
0	8047	4	2
0	8048	4	2
0	8078	4.05	2
0	8079	4.05	2
0	8080	4.05	2
0	8081	4.05	2
0	8142	4.1	2
0	8143	4.1	2
0	8144	4.1	2
0	8145	4.1	2
0	8146	4.1	2
0	8147	4.1	2
0	8148	4.1	2
0	8149	4.1	2
0	8166	4.15	2
0	8167	4.15	2
0	8168	4.15	2
0	8169	4.15	2
0	8191	4.2	2
0	8192	4.2	2
0	8193	4.2	2
0	8194	4.2	2
0	8195	4.2	2
0	8196	4.2	2
0	8197	4.2	2
0	8198	4.2	2
0	8241	4.25	2
0	8242	4.25	2
0	8243	4.25	2
0	8244	4.25	2
0	8253	4.3	2
0	8254	4.3	2
0	8255	4.3	2
0	8256	4.3	2
0	8257	4.3	2
0	8258	4.3	2
0	8259	4.3	2
0	8260	4.3	2
0	8316	4.35	2
0	8317	4.35	2
0	8318	4.35	2
0	8319	4.35	2
0	8354	4.4	2
0	8355	4.4	2
0	8356	4.4	2
0	8357	4.4	2
0	8358	4.4	2
0	8359	4.4	2
0	8360	4.4	2
0	8361	4.4	2
0	8378	4.45	2
0	8379	4.45	2
0	8380	4.45	2
0	8381	4.45	2
0	8403	4.5	2
0	8404	4.5	2
0	8405	4.5	2
0	8406	4.5	2
0	8407	4.5	2
0	8408	4.5	2
0	8409	4.5	2
0	8410	4.5	2
0	8453	4.55	2
0	8454	4.55	2
0	8455	4.55	2
0	8456	4.55	2
0	8491	4.6	2
0	8492	4.6	2
0	8493	4.6	2
0	8494	4.6	2
0	8495	4.6	2
0	8496	4.6	2
0	8497	4.6	2
0	8498	4.6	2
0	8528	4.65	2
0	8529	4.65	2
0	8530	4.65	2
0	8531	4.65	2
0	8566	4.7	2
0	8567	4.7	2
0	8568	4.7	2
0	8569	4.7	2
0	8570	4.7	2
0	8571	4.7	2
0	8572	4.7	2
0	8573	4.7	2
0	8590	4.75	2
0	8591	4.75	2
0	8592	4.75	2
0	8593	4.75	2
0	8615	4.8	2
0	8616	4.8	2
0	8617	4.8	2
0	8618	4.8	2
0	8619	4.8	2
0	8620	4.8	2
0	8621	4.8	2
0	8622	4.8	2
0	8691	4.85	2
0	8692	4.85	2
0	8693	4.85	2
0	8694	4.85	2
0	8703	4.9	2
0	8704	4.9	2
0	8705	4.9	2
0	8706	4.9	2
0	8707	4.9	2
0	8708	4.9	2
0	8709	4.9	2
0	8710	4.9	2
0	8740	4.95	2
0	8741	4.95	2
0	8742	4.95	2
0	8743	4.95	2
0	8778	5	2
0	8779	5	2
0	8780	5	2
0	8781	5	2
0	8782	5	2
0	8783	5	2
0	8784	5	2
0	8785	5	2
0	8802	5.05	2
0	8803	5.05	2
0	8804	5.05	2
0	8805	5.05	2
0	8853	5.1	2
0	8854	5.1	2
0	8855	5.1	2
0	8856	5.1	2
0	8857	5.1	2
0	8858	5.1	2
0	8859	5.1	2
0	8860	5.1	2
0	8903	5.15	2
0	8904	5.15	2
0	8905	5.15	2
0	8906	5.15	2
0	8915	5.2	2
0	8916	5.2	2
0	8917	5.2	2
0	8918	5.2	2
0	8919	5.2	2
0	8920	5.2	2
0	8921	5.2	2
0	8922	5.2	2
0	8952	5.25	2
0	8953	5.25	2
0	8954	5.25	2
0	8955	5.25	2
0	8990	5.3	2
0	8991	5.3	2
0	8992	5.3	2
0	8993	5.3	2
0	8994	5.3	2
0	8995	5.3	2
0	8996	5.3	2
0	8997	5.3	2
0	9040	5.35	2
0	9041	5.35	2
0	9042	5.35	2
0	9043	5.35	2
0	9065	5.4	2
0	9066	5.4	2
0	9067	5.4	2
0	9068	5.4	2
0	9069	5.4	2
0	9070	5.4	2
0	9071	5.4	2
0	9072	5.4	2
0	9115	5.45	2
0	9116	5.45	2
0	9117	5.45	2
0	9118	5.45	2
0	9127	5.5	2
0	9128	5.5	2
0	9129	5.5	2
0	9130	5.5	2
0	9131	5.5	2
0	9132	5.5	2
0	9133	5.5	2
0	9134	5.5	2
0	9164	5.55	2
0	9165	5.55	2
0	9166	5.55	2
0	9167	5.55	2
0	9228	5.6	2
0	9229	5.6	2
0	9230	5.6	2
0	9231	5.6	2
0	9232	5.6	2
0	9233	5.6	2
0	9234	5.6	2
0	9235	5.6	2
0	9252	5.65	2
0	9253	5.65	2
0	9254	5.65	2
0	9255	5.65	2
0	9277	5.7	2
0	9278	5.7	2
0	9279	5.7	2
0	9280	5.7	2
0	9281	5.7	2
0	9282	5.7	2
0	9283	5.7	2
0	9284	5.7	2
0	9327	5.75	2
0	9328	5.75	2
0	9329	5.75	2
0	9330	5.75	2
0	9339	5.8	2
0	9340	5.8	2
0	9341	5.8	2
0	9342	5.8	2
0	9343	5.8	2
0	9344	5.8	2
0	9345	5.8	2
0	9346	5.8	2
0	9402	5.85	2
0	9403	5.85	2
0	9404	5.85	2
0	9405	5.85	2
0	9440	5.9	2
0	9441	5.9	2
0	9442	5.9	2
0	9443	5.9	2
0	9444	5.9	2
0	9445	5.9	2
0	9446	5.9	2
0	9447	5.9	2
0	9464	5.95	2
0	9465	5.95	2
0	9466	5.95	2
0	9467	5.95	2
0	9489	6	2
0	9490	6	2
0	9491	6	2
0	9492	6	2
0	9493	6	2
0	9494	6	2
0	9495	6	2
0	9496	6	2
0	9539	6.05	2
0	9540	6.05	2
0	9541	6.05	2
0	9542	6.05	2
0	9577	6.1	2
0	9578	6.1	2
0	9579	6.1	2
0	9580	6.1	2
0	9581	6.1	2
0	9582	6.1	2
0	9583	6.1	2
0	9584	6.1	2
0	9614	6.15	2
0	9615	6.15	2
0	9616	6.15	2
0	9617	6.15	2
0	9652	6.2	2
0	9653	6.2	2
0	9654	6.2	2
0	9655	6.2	2
0	9656	6.2	2
0	9657	6.2	2
0	9658	6.2	2
0	9659	6.2	2
0	9676	6.25	2
0	9677	6.25	2
0	9678	6.25	2
0	9679	6.25	2
0	9701	6.3	2
0	9702	6.3	2
0	9703	6.3	2
0	9704	6.3	2
0	9705	6.3	2
0	9706	6.3	2
0	9707	6.3	2
0	9708	6.3	2
0	9777	6.35	2
0	9778	6.35	2
0	9779	6.35	2
0	9780	6.35	2
0	9789	6.4	2
0	9790	6.4	2
0	9791	6.4	2
0	9792	6.4	2
0	9793	6.4	2
0	9794	6.4	2
0	9795	6.4	2
0	9796	6.4	2
0	9826	6.45	2
0	9827	6.45	2
0	9828	6.45	2
0	9829	6.45	2
0	9864	6.5	2
0	9865	6.5	2
0	9866	6.5	2
0	9867	6.5	2
0	9868	6.5	2
0	9869	6.5	2
0	9870	6.5	2
0	9871	6.5	2
0	9888	6.55	2
0	9889	6.55	2
0	9890	6.55	2
0	9891	6.55	2
0	9939	6.6	2
0	9940	6.6	2
0	9941	6.6	2
0	9942	6.6	2
0	9943	6.6	2
0	9944	6.6	2
0	9945	6.6	2
0	9946	6.6	2
0	9989	6.65	2
0	9990	6.65	2
0	9991	6.65	2
0	9992	6.65	2
0	10001	6.7	2
0	10002	6.7	2
0	10003	6.7	2
0	10004	6.7	2
0	10005	6.7	2
0	10006	6.7	2
0	10007	6.7	2
0	10008	6.7	2
0	10038	6.75	2
0	10039	6.75	2
0	10040	6.75	2
0	10041	6.75	2
0	10076	6.8	2
0	10077	6.8	2
0	10078	6.8	2
0	10079	6.8	2
0	10080	6.8	2
0	10081	6.8	2
0	10082	6.8	2
0	10083	6.8	2
0	10126	6.85	2
0	10127	6.85	2
0	10128	6.85	2
0	10129	6.85	2
0	10151	6.9	2
0	10152	6.9	2
0	10153	6.9	2
0	10154	6.9	2
0	10155	6.9	2
0	10156	6.9	2
0	10157	6.9	2
0	10158	6.9	2
0	10201	6.95	2
0	10202	6.95	2
0	10203	6.95	2
0	10204	6.95	2
0	10213	7	2
0	10214	7	2
0	10215	7	2
0	10216	7	2
0	10217	7	2
0	10218	7	2
0	10219	7	2
0	10220	7	2
0	10250	7.05	2
0	10251	7.05	2
0	10252	7.05	2
0	10253	7.05	2
0	10314	7.1	2
0	10315	7.1	2
0	10316	7.1	2
0	10317	7.1	2
0	10318	7.1	2
0	10319	7.1	2
0	10320	7.1	2
0	10321	7.1	2
0	10338	7.15	2
0	10339	7.15	2
0	10340	7.15	2
0	10341	7.15	2
0	10363	7.2	2
0	10364	7.2	2
0	10365	7.2	2
0	10366	7.2	2
0	10367	7.2	2
0	10368	7.2	2
0	10369	7.2	2
0	10370	7.2	2
0	10413	7.25	2
0	10414	7.25	2
0	10415	7.25	2
0	10416	7.25	2
0	10425	7.3	2
0	10426	7.3	2
0	10427	7.3	2
0	10428	7.3	2
0	10429	7.3	2
0	10430	7.3	2
0	10431	7.3	2
0	10432	7.3	2
0	10488	7.35	2
0	10489	7.35	2
0	10490	7.35	2
0	10491	7.35	2
0	10526	7.4	2
0	10527	7.4	2
0	10528	7.4	2
0	10529	7.4	2
0	10530	7.4	2
0	10531	7.4	2
0	10532	7.4	2
0	10533	7.4	2
0	10550	7.45	2
0	10551	7.45	2
0	10552	7.45	2
0	10553	7.45	2
0	10575	7.5	2
0	10576	7.5	2
0	10577	7.5	2
0	10578	7.5	2
0	10579	7.5	2
0	10580	7.5	2
0	10581	7.5	2
0	10582	7.5	2
0	10625	7.55	2
0	10626	7.55	2
0	10627	7.55	2
0	10628	7.55	2
0	10663	7.6	2
0	10664	7.6	2
0	10665	7.6	2
0	10666	7.6	2
0	10667	7.6	2
0	10668	7.6	2
0	10669	7.6	2
0	10670	7.6	2
0	10700	7.65	2
0	10701	7.65	2
0	10702	7.65	2
0	10703	7.65	2
0	10738	7.7	2
0	10739	7.7	2
0	10740	7.7	2
0	10741	7.7	2
0	10742	7.7	2
0	10743	7.7	2
0	10744	7.7	2
0	10745	7.7	2
0	10762	7.75	2
0	10763	7.75	2
0	10764	7.75	2
0	10765	7.75	2
0	10787	7.8	2
0	10788	7.8	2
0	10789	7.8	2
0	10790	7.8	2
0	10791	7.8	2
0	10792	7.8	2
0	10793	7.8	2
0	10794	7.8	2
0	10863	7.85	2
0	10864	7.85	2
0	10865	7.85	2
0	10866	7.85	2
0	10875	7.9	2
0	10876	7.9	2
0	10877	7.9	2
0	10878	7.9	2
0	10879	7.9	2
0	10880	7.9	2
0	10881	7.9	2
0	10882	7.9	2
0	10912	7.95	2
0	10913	7.95	2
0	10914	7.95	2
0	10915	7.95	2
0	10950	8	2
0	10951	8	2
0	10952	8	2
0	10953	8	2
0	10954	8	2
0	10955	8	2
0	10956	8	2
0	10957	8	2
0	10974	8.05	2
0	10975	8.05	2
0	10976	8.05	2
0	10977	8.05	2
0	11025	8.1	2
0	11026	8.1	2
0	11027	8.1	2
0	11028	8.1	2
0	11029	8.1	2
0	11030	8.1	2
0	11031	8.1	2
0	11032	8.1	2
0	11075	8.15	2
0	11076	8.15	2
0	11077	8.15	2
0	11078	8.15	2
0	11087	8.2	2
0	11088	8.2	2
0	11089	8.2	2
0	11090	8.2	2
0	11091	8.2	2
0	11092	8.2	2
0	11093	8.2	2
0	11094	8.2	2
0	11124	8.25	2
0	11125	8.25	2
0	11126	8.25	2
0	11127	8.25	2
0	11162	8.3	2
0	11163	8.3	2
0	11164	8.3	2
0	11165	8.3	2
0	11166	8.3	2
0	11167	8.3	2
0	11168	8.3	2
0	11169	8.3	2
0	11212	8.35	2
0	11213	8.35	2
0	11214	8.35	2
0	11215	8.35	2
0	11237	8.4	2
0	11238	8.4	2
0	11239	8.4	2
0	11240	8.4	2
0	11241	8.4	2
0	11242	8.4	2
0	11243	8.4	2
0	11244	8.4	2
0	11287	8.45	2
0	11288	8.45	2
0	11289	8.45	2
0	11290	8.45	2
0	11299	8.5	2
0	11300	8.5	2
0	11301	8.5	2
0	11302	8.5	2
0	11303	8.5	2
0	11304	8.5	2
0	11305	8.5	2
0	11306	8.5	2
0	11336	8.55	2
0	11337	8.55	2
0	11338	8.55	2
0	11339	8.55	2
0	11400	8.6	2
0	11401	8.6	2
0	11402	8.6	2
0	11403	8.6	2
0	11404	8.6	2
0	11405	8.6	2
0	11406	8.6	2
0	11407	8.6	2
0	11424	8.65	2
0	11425	8.65	2
0	11426	8.65	2
0	11427	8.65	2
0	11449	8.7	2
0	11450	8.7	2
0	11451	8.7	2
0	11452	8.7	2
0	11453	8.7	2
0	11454	8.7	2
0	11455	8.7	2
0	11456	8.7	2
0	11499	8.75	2
0	11500	8.75	2
0	11501	8.75	2
0	11502	8.75	2
0	11511	8.8	2
0	11512	8.8	2
0	11513	8.8	2
0	11514	8.8	2
0	11515	8.8	2
0	11516	8.8	2
0	11517	8.8	2
0	11518	8.8	2
0	11574	8.85	2
0	11575	8.85	2
0	11576	8.85	2
0	11577	8.85	2
0	11612	8.9	2
0	11613	8.9	2
0	11614	8.9	2
0	11615	8.9	2
0	11616	8.9	2
0	11617	8.9	2
0	11618	8.9	2
0	11619	8.9	2
0	11636	8.95	2
0	11637	8.95	2
0	11638	8.95	2
0	11639	8.95	2
0	11661	9	2
0	11662	9	2
0	11663	9	2
0	11664	9	2
0	11665	9	2
0	11666	9	2
0	11667	9	2
0	11668	9	2
0	11711	9.05	2
0	11712	9.05	2
0	11713	9.05	2
0	11714	9.05	2
0	11749	9.1	2
0	11750	9.1	2
0	11751	9.1	2
0	11752	9.1	2
0	11753	9.1	2
0	11754	9.1	2
0	11755	9.1	2
0	11756	9.1	2
0	11786	9.15	2
0	11787	9.15	2
0	11788	9.15	2
0	11789	9.15	2
0	11824	9.2	2
0	11825	9.2	2
0	11826	9.2	2
0	11827	9.2	2
0	11828	9.2	2
0	11829	9.2	2
0	11830	9.2	2
0	11831	9.2	2
0	11848	9.25	2
0	11849	9.25	2
0	11850	9.25	2
0	11851	9.25	2
0	11899	9.3	2
0	11900	9.3	2
0	11901	9.3	2
0	11902	9.3	2
0	11903	9.3	2
0	11904	9.3	2
0	11905	9.3	2
0	11906	9.3	2
0	11949	9.35	2
0	11950	9.35	2
0	11951	9.35	2
0	11952	9.35	2
0	11961	9.4	2
0	11962	9.4	2
0	11963	9.4	2
0	11964	9.4	2
0	11965	9.4	2
0	11966	9.4	2
0	11967	9.4	2
0	11968	9.4	2
0	11998	9.45	2
0	11999	9.45	2
0	12000	9.45	2
0	12001	9.45	2
0	12036	9.5	2
0	12037	9.5	2
0	12038	9.5	2
0	12039	9.5	2
0	12040	9.5	2
0	12041	9.5	2
0	12042	9.5	2
0	12043	9.5	2
0	12086	9.55	2
0	12087	9.55	2
0	12088	9.55	2
0	12089	9.55	2
0	12111	9.6	2
0	12112	9.6	2
0	12113	9.6	2
0	12114	9.6	2
0	12115	9.6	2
0	12116	9.6	2
0	12117	9.6	2
0	12118	9.6	2
0	12161	9.65	2
0	12162	9.65	2
0	12163	9.65	2
0	12164	9.65	2
0	12173	9.7	2
0	12174	9.7	2
0	12175	9.7	2
0	12176	9.7	2
0	12177	9.7	2
0	12178	9.7	2
0	12179	9.7	2
0	12180	9.7	2
0	12210	9.75	2
0	12211	9.75	2
0	12212	9.75	2
0	12213	9.75	2
0	12274	9.8	2
0	12275	9.8	2
0	12276	9.8	2
0	12277	9.8	2
0	12278	9.8	2
0	12279	9.8	2
0	12280	9.8	2
0	12281	9.8	2
0	12298	9.85	2
0	12299	9.85	2
0	12300	9.85	2
0	12301	9.85	2
0	12323	9.9	2
0	12324	9.9	2
0	12325	9.9	2
0	12326	9.9	2
0	12327	9.9	2
0	12328	9.9	2
0	12329	9.9	2
0	12330	9.9	2
0	12373	9.95	2
0	12374	9.95	2
0	12375	9.95	2
0	12376	9.95	2
0	12385	10	2
0	12386	10	2
0	12387	10	2
0	12388	10	2
0	12389	10	2
0	12390	10	2
0	12391	10	2
0	12392	10	2
1	25	0.1	-nan
1	51	0.101	-nan
1	53	0.102	-nan
1	55	0.103	-nan
1	57	0.104	-nan
1	59	0.105	-nan
1	61	0.106	-nan
1	63	0.107	-nan
1	65	0.108	-nan
1	67	0.109	-nan
1	69	0.11	-nan
1	71	0.111	-nan
1	73	0.112	-nan
1	75	0.113	-nan
1	77	0.114	-nan
1	79	0.115	-nan
1	81	0.116	-nan
1	83	0.117	-nan
1	85	0.118	-nan
1	87	0.119	-nan
1	89	0.12	-nan
1	91	0.121	-nan
1	93	0.122	-nan
1	95	0.123	-nan
1	97	0.124	-nan
1	99	0.125	-nan
1	101	0.126	-nan
1	103	0.127	-nan
1	105	0.128	-nan
1	107	0.129	-nan
1	109	0.13	-nan
1	111	0.131	-nan
1	113	0.132	-nan
1	115	0.133	-nan
1	117	0.134	-nan
1	119	0.135	-nan
1	121	0.136	-nan
1	123	0.137	-nan
1	125	0.138	-nan
1	127	0.139	-nan
1	129	0.14	-nan
1	131	0.141	-nan
1	133	0.142	-nan
1	135	0.143	-nan
1	137	0.144	-nan
1	139	0.145	-nan
1	141	0.146	-nan
1	143	0.147	-nan
1	145	0.148	-nan
1	147	0.149	-nan
1	153	0.15	-nan
1	163	0.151	-nan
1	165	0.152	-nan
1	167	0.153	-nan
1	169	0.154	-nan
1	171	0.155	-nan
1	173	0.156	-nan
1	175	0.157	-nan
1	177	0.158	-nan
1	179	0.159	-nan
1	181	0.16	-nan
1	183	0.161	-nan
1	185	0.162	-nan
1	187	0.163	-nan
1	189	0.164	-nan
1	191	0.165	-nan
1	193	0.166	-nan
1	195	0.167	-nan
1	197	0.168	-nan
1	199	0.169	-nan
1	201	0.17	-nan
1	203	0.171	-nan
1	205	0.172	-nan
1	207	0.173	-nan
1	209	0.174	-nan
1	211	0.175	-nan
1	213	0.176	-nan
1	215	0.177	-nan
1	217	0.178	-nan
1	219	0.179	-nan
1	221	0.18	-nan
1	223	0.181	-nan
1	225	0.182	-nan
1	227	0.183	-nan
1	229	0.184	-nan
1	231	0.185	-nan
1	233	0.186	-nan
1	235	0.187	-nan
1	237	0.188	-nan
1	239	0.189	-nan
1	241	0.19	-nan
1	243	0.191	-nan
1	245	0.192	-nan
1	247	0.193	-nan
1	249	0.194	-nan
1	251	0.195	-nan
1	253	0.196	-nan
1	255	0.197	-nan
1	257	0.198	-nan
1	259	0.199	-nan
2	1116	1.12368	36
2	1126	1.12912	72
2	1136	1.13456	108
2	1146	1.14	144
2	1156	1.14544	180
2	1178	1.15088	216
2	1188	1.15632	252
2	1198	1.16176	288
2	1208	1.1672	324
2	1218	1.17264	360
2	1228	1.17808	396
2	1238	1.18352	432
2	1248	1.18896	468
2	1258	1.1944	504
2	1268	1.19984	540
2	1302	1.20528	576
2	1312	1.21072	612
2	1322	1.21616	648
2	1332	1.2216	684
2	1342	1.22704	720
2	1352	1.23248	756
2	1362	1.23792	792
2	1372	1.24336	828
2	1382	1.2488	864
2	1404	1.25424	900
2	1414	1.25968	936
2	1424	1.26512	972
2	1434	1.27056	1008
2	1444	1.276	1044
2	1454	1.28144	1080
2	1464	1.28688	1116
2	1474	1.29232	1152
2	1484	1.29776	1188
2	1518	1.3032	1224
2	1528	1.30864	1260
2	1538	1.31408	1296
2	1548	1.31952	1332
2	1558	1.32496	1368
2	1568	1.3304	1404
2	1578	1.33584	1440
2	1588	1.34128	1476
2	1598	1.34672	1512
2	1636	1.35216	1548
2	1663	1.3576	1584
2	1694	1.36304	1620
2	1806	1.36848	1656
2	1820	1.37392	1692
2	1826	1.37672	1728
2	1836	1.37936	1764
2	1842	1.38216	1800
2	1852	1.3848	1836
2	1858	1.3876	1872
2	1868	1.39024	1908
2	1874	1.39304	1944
2	1884	1.39568	1980
2	1890	1.39848	2016
2	1924	1.40112	2052
2	1930	1.40392	2088
2	1940	1.40656	2124
2	1946	1.40936	2160
2	1956	1.412	2196
2	1962	1.4148	2232
2	1972	1.41744	2268
2	1978	1.42024	2304
2	1988	1.42288	2340
2	1994	1.42568	2376
2	2004	1.42832	2412
2	2010	1.43112	2448
2	2020	1.43376	2484
2	2026	1.43656	2520
2	2036	1.4392	2556
2	2042	1.442	2592
2	2052	1.44464	2628
2	2058	1.44744	2664
2	2080	1.45008	2700
2	2086	1.45288	2736
2	2096	1.45552	2772
2	2102	1.45832	2808
2	2112	1.46096	2844
2	2118	1.46376	2880
2	2128	1.4664	2916
2	2134	1.4692	2952
2	2144	1.47184	2988
2	2150	1.47464	3024
2	2160	1.47728	3060
2	2166	1.48008	3096
2	2176	1.48272	3132
2	2182	1.48552	3168
2	2192	1.48816	3204
2	2198	1.49096	3240
2	2208	1.4936	3276
2	2214	1.4964	3312
2	2224	1.49904	3348
2	2254	1.50184	3384
2	2264	1.50448	3420
2	2270	1.50728	3456
2	2280	1.50992	3492
2	2286	1.51272	3528
2	2296	1.51536	3564
2	2302	1.51816	3600
2	2312	1.5208	3636
2	2318	1.5236	3672
2	2328	1.52624	3708
2	2334	1.52904	3744
2	2344	1.53168	3780
2	2350	1.53448	3816
2	2360	1.53712	3852
2	2366	1.53992	3888
2	2376	1.54256	3924
2	2382	1.54536	3960
2	2392	1.548	3996
2	2422	1.5508	4032
2	2428	1.55344	4068
2	2448	1.55624	4104
2	2454	1.55888	4140
2	2471	1.56168	4176
2	2551	1.56432	4212
2	2561	1.56712	4248
2	2571	1.56976	4284
2	2581	1.57256	4320
2	2587	1.5752	4356
2	2593	1.57672	4392
2	2599	1.578	4428
2	2609	1.58064	4464
2	2615	1.58216	4500
2	2621	1.58344	4536
2	2631	1.58608	4572
2	2637	1.5876	4608
2	2643	1.58888	4644
2	2653	1.59152	4680
2	2659	1.59304	4716
2	2665	1.59432	4752
2	2675	1.59696	4788
2	2681	1.59848	4824
2	2687	1.59976	4860
2	2721	1.6024	4896
2	2727	1.60392	4932
2	2733	1.6052	4968
2	2743	1.60784	5004
2	2749	1.60936	5040
2	2755	1.61064	5076
2	2765	1.61328	5112
2	2771	1.6148	5148
2	2777	1.61608	5184
2	2791	1.61872	5220
2	2797	1.62024	5256
2	2815	1.62416	5292
2	2821	1.62568	5328
2	2839	1.6296	5364
2	2845	1.63112	5400
2	2863	1.63504	5436
2	2872	1.63656	5472
2	2887	1.64048	5508
2	2897	1.642	5544
2	2911	1.64592	5580
2	2921	1.64744	5616
2	2947	1.65136	5652
2	2957	1.65288	5688
2	2971	1.6568	5724
2	2981	1.65832	5760
2	2999	1.66224	5796
2	3005	1.66376	5832
2	3023	1.66768	5868
2	3029	1.6692	5904
2	3051	1.67312	5940
2	3057	1.67464	5976
2	3079	1.67856	6012
2	3088	1.68008	6048
2	3107	1.684	6084
2	3117	1.68552	6120
2	3135	1.68944	6156
2	3145	1.69096	6192
2	3163	1.69488	6228
2	3173	1.6964	6264
2	3215	1.70032	6300
2	3225	1.70184	6336
2	3243	1.70576	6372
2	3249	1.70728	6408
2	3274	1.7112	6444
2	3280	1.71272	6480
2	3298	1.71664	6516
2	3308	1.71816	6552
2	3326	1.72208	6588
2	3336	1.7236	6624
2	3354	1.72752	6660
2	3364	1.72904	6696
2	3386	1.73296	6732
2	3392	1.73448	6768
2	3414	1.7384	6804
2	3420	1.73992	6840
2	3442	1.74384	6876
2	3448	1.74536	6912
2	3470	1.74928	6948
2	3492	1.7508	6984
2	3510	1.75472	7020
2	3520	1.75624	7056
2	3538	1.76016	7092
2	3548	1.76168	7128
2	3570	1.7656	7164
2	3592	1.77104	7200
2	3610	1.77648	7236
2	3628	1.78192	7272
2	3650	1.78736	7308
2	3774	1.7928	7344
2	3784	1.79736	7380
2	3790	1.79824	7416
2	3834	1.8028	7452
2	3840	1.80368	7488
2	3868	1.80824	7524
2	3874	1.80912	7560
2	3914	1.81368	7596
2	3924	1.81456	7632
2	3938	1.81912	7668
2	3944	1.81968	7704
2	3950	1.82	7740
2	3960	1.82456	7776
2	3970	1.82512	7812
2	3976	1.82544	7848
2	3986	1.83	7884
2	3996	1.83056	7920
2	4002	1.83088	7956
2	4012	1.83544	7992
2	4022	1.836	8028
2	4028	1.83632	8064
2	4038	1.84088	8100
2	4048	1.84144	8136
2	4054	1.84176	8172
2	4064	1.84632	8208
2	4074	1.84688	8244
2	4080	1.8472	8280
2	4104	1.85176	8316
2	4114	1.85232	8352
2	4120	1.85264	8388
2	4130	1.8572	8424
2	4140	1.85776	8460
2	4146	1.85808	8496
2	4156	1.86264	8532
2	4166	1.8632	8568
2	4172	1.86352	8604
2	4182	1.86808	8640
2	4192	1.86864	8676
2	4198	1.86896	8712
2	4208	1.87352	8748
2	4218	1.87408	8784
2	4224	1.8744	8820
2	4234	1.87896	8856
2	4244	1.87952	8892
2	4250	1.87984	8928
2	4260	1.8844	8964
2	4270	1.88496	9000
2	4276	1.88528	9036
2	4290	1.88984	9072
2	4304	1.89072	9108
2	4322	1.89528	9144
2	4328	1.89616	9180
2	4370	1.90072	9216
2	4376	1.9016	9252
2	4390	1.90616	9288
2	4396	1.90704	9324
2	4417	1.9116	9360
2	4426	1.91248	9396
2	4441	1.91704	9432
2	4451	1.91792	9468
2	4465	1.92248	9504
2	4475	1.92336	9540
2	4493	1.92792	9576
2	4499	1.9288	9612
2	4517	1.93336	9648
2	4523	1.93424	9684
2	4541	1.9388	9720
2	4547	1.93968	9756
2	4565	1.94424	9792
2	4571	1.94512	9828
2	4589	1.94968	9864
2	4607	1.95056	9900
2	4625	1.95512	9936
2	4634	1.956	9972
2	4649	1.96056	10008
2	4655	1.96144	10044
2	4669	1.966	10080
2	4675	1.96688	10116
2	4689	1.97144	10152
2	4695	1.97232	10188
2	4709	1.97688	10224
2	4715	1.97776	10260
2	4729	1.98232	10296
2	4735	1.9832	10332
2	4749	1.98776	10368
2	4755	1.98864	10404
2	4769	1.9932	10440
2	4775	1.99408	10476
2	4789	1.99864	10512
2	4795	1.99952	10548
2	4833	2.00408	10584
2	4839	2.00496	10620
2	4853	2.00952	10656
2	4859	2.0104	10692
2	4873	2.01496	10728
2	4879	2.01584	10764
2	4893	2.0204	10800
2	4899	2.02128	10836
2	4913	2.02584	10872
2	4919	2.02672	10908
2	4933	2.03128	10944
2	4939	2.03216	10980
2	4953	2.03672	11016
2	4959	2.0376	11052
2	4973	2.04216	11088
2	4979	2.04304	11124
2	4993	2.0476	11160
2	4999	2.04848	11196
2	5031	2.05304	11232
2	5037	2.05392	11268
2	5065	2.05848	11304
2	5071	2.05936	11340
2	5227	2.06392	11376
2	5237	2.0648	11412
2	5247	2.06936	11448
2	5253	2.06984	11484
2	5259	2.07024	11520
2	5265	2.07072	11556
2	5271	2.0748	11592
2	5277	2.07528	11628
2	5283	2.07568	11664
2	5289	2.07616	11700
2	5295	2.08024	11736
2	5301	2.08072	11772
2	5307	2.08112	11808
2	5313	2.0816	11844
2	5319	2.08568	11880
2	5325	2.08616	11916
2	5331	2.08656	11952
2	5337	2.08704	11988
2	5343	2.09112	12024
2	5349	2.0916	12060
2	5355	2.092	12096
2	5361	2.09248	12132
2	5374	2.09704	12168
2	5380	2.09744	12204
2	5386	2.09792	12240
2	5420	2.10248	12276
2	5426	2.10288	12312
2	5432	2.10336	12348
2	5445	2.10792	12384
2	5451	2.10832	12420
2	5457	2.1088	12456
2	5463	2.11336	12492
2	5469	2.11376	12528
2	5475	2.11424	12564
2	5481	2.1188	12600
2	5487	2.1192	12636
2	5493	2.11968	12672
2	5499	2.12424	12708
2	5505	2.12464	12744
2	5511	2.12512	12780
2	5517	2.12968	12816
2	5523	2.13008	12852
2	5529	2.13056	12888
2	5535	2.13512	12924
2	5541	2.13552	12960
2	5547	2.136	12996
2	5553	2.14056	13032
2	5559	2.14096	13068
2	5565	2.14144	13104
2	5571	2.146	13140
2	5577	2.1464	13176
2	5583	2.14688	13212
2	5601	2.15144	13248
2	5607	2.15184	13284
2	5613	2.15232	13320
2	5619	2.15688	13356
2	5625	2.15728	13392
2	5631	2.15776	13428
2	5637	2.16232	13464
2	5643	2.16272	13500
2	5649	2.1632	13536
2	5655	2.16776	13572
2	5661	2.16816	13608
2	5667	2.16864	13644
2	5673	2.1732	13680
2	5679	2.1736	13716
2	5685	2.17408	13752
2	5691	2.17864	13788
2	5697	2.17904	13824
2	5703	2.17952	13860
2	5709	2.18408	13896
2	5715	2.18448	13932
2	5721	2.18496	13968
2	5727	2.18952	14004
2	5733	2.18992	14040
2	5739	2.1904	14076
2	5745	2.19496	14112
2	5751	2.19536	14148
2	5757	2.19584	14184
2	5787	2.2004	14220
2	5793	2.2008	14256
2	5799	2.20128	14292
2	5809	2.20584	14328
2	5815	2.20624	14364
2	5836	2.21128	14400
2	5865	2.21672	14436
2	5883	2.22216	14472
2	5901	2.2276	14508
2	5922	2.23304	14544
2	5947	2.23848	14580
2	5961	2.24392	14616
2	5975	2.24936	14652
2	6003	2.2548	14688
2	6021	2.26024	14724
2	6035	2.26568	14760
2	6049	2.27112	14796
2	6063	2.27656	14832
2	6077	2.282	14868
2	6091	2.28744	14904
2	6105	2.29288	14940
2	6119	2.29832	14976
2	6165	2.30376	15012
2	6179	2.3092	15048
2	6193	2.31464	15084
2	6619	2.42232	15120
2	6620	2.42232	15156
2	6631	2.42776	15192
2	6632	2.42776	15228
2	6643	2.4332	15264
2	6644	2.4332	15300
2	6655	2.43864	15336
2	6656	2.43864	15372
2	6667	2.44408	15408
2	6668	2.44408	15444
2	6679	2.44952	15480
2	6680	2.44952	15516
2	6708	2.45496	15552
2	6722	2.4604	15588
2	6736	2.46584	15624
2	6750	2.47128	15660
2	6764	2.47672	15696
2	6774	2.48216	15732
2	6784	2.4876	15768
2	6794	2.49304	15804
2	6804	2.49848	15840
2	6840	2.50392	15876
2	6861	2.50936	15912
2	6871	2.5148	15948
2	6881	2.52024	15984
2	6891	2.52568	16020
2	6901	2.53112	16056
2	6911	2.53656	16092
2	6921	2.542	16128
2	6931	2.54744	16164
2	6961	2.55288	16200
2	6992	2.55832	16236
2	7002	2.56376	16272
3	1116	1.12368	36
3	1126	1.12912	72
3	1136	1.13456	108
3	1146	1.14	144
3	1156	1.14544	180
3	1178	1.15088	216
3	1188	1.15632	252
3	1198	1.16176	288
3	1208	1.1672	324
3	1218	1.17264	360
3	1228	1.17808	396
3	1238	1.18352	432
3	1248	1.18896	468
3	1258	1.1944	504
3	1268	1.19984	540
3	1302	1.20528	576
3	1312	1.21072	612
3	1322	1.21616	648
3	1332	1.2216	684
3	1342	1.22704	720
3	1352	1.23248	756
3	1362	1.23792	792
3	1372	1.24336	828
3	1382	1.2488	864
3	1404	1.25424	900
3	1414	1.25968	936
3	1424	1.26512	972
3	1434	1.27056	1008
3	1444	1.276	1044
3	1454	1.28144	1080
3	1464	1.28688	1116
3	1474	1.29232	1152
3	1484	1.29776	1188
3	1518	1.3032	1224
3	1528	1.30864	1260
3	1538	1.31408	1296
3	1548	1.31952	1332
3	1558	1.32496	1368
3	1568	1.3304	1404
3	1578	1.33584	1440
3	1588	1.34128	1476
3	1598	1.34672	1512
3	1636	1.35216	1548
3	1663	1.3576	1584
3	1694	1.36304	1620
3	1806	1.36848	1656
3	1820	1.37392	1692
3	1826	1.37672	1728
3	1836	1.37936	1764
3	1842	1.38216	1800
3	1852	1.3848	1836
3	1858	1.3876	1872
3	1868	1.39024	1908
3	1874	1.39304	1944
3	1884	1.39568	1980
3	1890	1.39848	2016
3	1924	1.40112	2052
3	1930	1.40392	2088
3	1940	1.40656	2124
3	1946	1.40936	2160
3	1956	1.412	2196
3	1962	1.4148	2232
3	1972	1.41744	2268
3	1978	1.42024	2304
3	1988	1.42288	2340
3	1994	1.42568	2376
3	2004	1.42832	2412
3	2010	1.43112	2448
3	2020	1.43376	2484
3	2026	1.43656	2520
3	2036	1.4392	2556
3	2042	1.442	2592
3	2052	1.44464	2628
3	2058	1.44744	2664
3	2080	1.45008	2700
3	2086	1.45288	2736
3	2096	1.45552	2772
3	2102	1.45832	2808
3	2112	1.46096	2844
3	2118	1.46376	2880
3	2128	1.4664	2916
3	2134	1.4692	2952
3	2144	1.47184	2988
3	2150	1.47464	3024
3	2160	1.47728	3060
3	2166	1.48008	3096
3	2176	1.48272	3132
3	2182	1.48552	3168
3	2192	1.48816	3204
3	2198	1.49096	3240
3	2208	1.4936	3276
3	2214	1.4964	3312
3	2224	1.49904	3348
3	2254	1.50184	3384
3	2264	1.50448	3420
3	2270	1.50728	3456
3	2280	1.50992	3492
3	2286	1.51272	3528
3	2296	1.51536	3564
3	2302	1.51816	3600
3	2312	1.5208	3636
3	2318	1.5236	3672
3	2328	1.52624	3708
3	2334	1.52904	3744
3	2344	1.53168	3780
3	2350	1.53448	3816
3	2360	1.53712	3852
3	2366	1.53992	3888
3	2376	1.54256	3924
3	2382	1.54536	3960
3	2392	1.548	3996
3	2422	1.5508	4032
3	2428	1.55344	4068
3	2448	1.55624	4104
3	2454	1.55888	4140
3	2471	1.56168	4176
3	2551	1.56432	4212
3	2561	1.56712	4248
3	2571	1.56976	4284
3	2581	1.57256	4320
3	2587	1.5752	4356
3	2593	1.57672	4392
3	2599	1.578	4428
3	2609	1.58064	4464
3	2615	1.58216	4500
3	2621	1.58344	4536
3	2631	1.58608	4572
3	2637	1.5876	4608
3	2643	1.58888	4644
3	2653	1.59152	4680
3	2659	1.59304	4716
3	2665	1.59432	4752
3	2675	1.59696	4788
3	2681	1.59848	4824
3	2687	1.59976	4860
3	2721	1.6024	4896
3	2727	1.60392	4932
3	2733	1.6052	4968
3	2743	1.60784	5004
3	2749	1.60936	5040
3	2755	1.61064	5076
3	2765	1.61328	5112
3	2771	1.6148	5148
3	2777	1.61608	5184
3	2791	1.61872	5220
3	2797	1.62024	5256
3	2815	1.62416	5292
3	2821	1.62568	5328
3	2839	1.6296	5364
3	2845	1.63112	5400
3	2863	1.63504	5436
3	2872	1.63656	5472
3	2887	1.64048	5508
3	2897	1.642	5544
3	2911	1.64592	5580
3	2921	1.64744	5616
3	2947	1.65136	5652
3	2957	1.65288	5688
3	2971	1.6568	5724
3	2981	1.65832	5760
3	2999	1.66224	5796
3	3005	1.66376	5832
3	3023	1.66768	5868
3	3029	1.6692	5904
3	3051	1.67312	5940
3	3057	1.67464	5976
3	3079	1.67856	6012
3	3088	1.68008	6048
3	3107	1.684	6084
3	3117	1.68552	6120
3	3135	1.68944	6156
3	3145	1.69096	6192
3	3163	1.69488	6228
3	3173	1.6964	6264
3	3215	1.70032	6300
3	3225	1.70184	6336
3	3243	1.70576	6372
3	3249	1.70728	6408
3	3274	1.7112	6444
3	3280	1.71272	6480
3	3298	1.71664	6516
3	3308	1.71816	6552
3	3326	1.72208	6588
3	3336	1.7236	6624
3	3354	1.72752	6660
3	3364	1.72904	6696
3	3386	1.73296	6732
3	3392	1.73448	6768
3	3414	1.7384	6804
3	3420	1.73992	6840
3	3442	1.74384	6876
3	3448	1.74536	6912
3	3470	1.74928	6948
3	3492	1.7508	6984
3	3510	1.75472	7020
3	3520	1.75624	7056
3	3538	1.76016	7092
3	3548	1.76168	7128
3	3570	1.7656	7164
3	3592	1.77104	7200
3	3610	1.77648	7236
3	3628	1.78192	7272
3	3650	1.78736	7308
3	3774	1.7928	7344
3	3784	1.79736	7380
3	3790	1.79824	7416
3	3834	1.8028	7452
3	3840	1.80368	7488
3	3868	1.80824	7524
3	3874	1.80912	7560
3	3914	1.81368	7596
3	3924	1.81456	7632
3	3938	1.81912	7668
3	3944	1.81968	7704
3	3950	1.82	7740
3	3960	1.82456	7776
3	3970	1.82512	7812
3	3976	1.82544	7848
3	3986	1.83	7884
3	3996	1.83056	7920
3	4002	1.83088	7956
3	4012	1.83544	7992
3	4022	1.836	8028
3	4028	1.83632	8064
3	4038	1.84088	8100
3	4048	1.84144	8136
3	4054	1.84176	8172
3	4064	1.84632	8208
3	4074	1.84688	8244
3	4080	1.8472	8280
3	4104	1.85176	8316
3	4114	1.85232	8352
3	4120	1.85264	8388
3	4130	1.8572	8424
3	4140	1.85776	8460
3	4146	1.85808	8496
3	4156	1.86264	8532
3	4166	1.8632	8568
3	4172	1.86352	8604
3	4182	1.86808	8640
3	4192	1.86864	8676
3	4198	1.86896	8712
3	4208	1.87352	8748
3	4218	1.87408	8784
3	4224	1.8744	8820
3	4234	1.87896	8856
3	4244	1.87952	8892
3	4250	1.87984	8928
3	4260	1.8844	8964
3	4270	1.88496	9000
3	4276	1.88528	9036
3	4290	1.88984	9072
3	4304	1.89072	9108
3	4322	1.89528	9144
3	4328	1.89616	9180
3	4370	1.90072	9216
3	4376	1.9016	9252
3	4390	1.90616	9288
3	4396	1.90704	9324
3	4417	1.9116	9360
3	4426	1.91248	9396
3	4441	1.91704	9432
3	4451	1.91792	9468
3	4465	1.92248	9504
3	4475	1.92336	9540
3	4493	1.92792	9576
3	4499	1.9288	9612
3	4517	1.93336	9648
3	4523	1.93424	9684
3	4541	1.9388	9720
3	4547	1.93968	9756
3	4565	1.94424	9792
3	4571	1.94512	9828
3	4589	1.94968	9864
3	4607	1.95056	9900
3	4625	1.95512	9936
3	4634	1.956	9972
3	4649	1.96056	10008
3	4655	1.96144	10044
3	4669	1.966	10080
3	4675	1.96688	10116
3	4689	1.97144	10152
3	4695	1.97232	10188
3	4709	1.97688	10224
3	4715	1.97776	10260
3	4729	1.98232	10296
3	4735	1.9832	10332
3	4749	1.98776	10368
3	4755	1.98864	10404
3	4769	1.9932	10440
3	4775	1.99408	10476
3	4789	1.99864	10512
3	4795	1.99952	10548
3	4833	2.00408	10584
3	4839	2.00496	10620
3	4853	2.00952	10656
3	4859	2.0104	10692
3	4873	2.01496	10728
3	4879	2.01584	10764
3	4893	2.0204	10800
3	4899	2.02128	10836
3	4913	2.02584	10872
3	4919	2.02672	10908
3	4933	2.03128	10944
3	4939	2.03216	10980
3	4953	2.03672	11016
3	4959	2.0376	11052
3	4973	2.04216	11088
3	4979	2.04304	11124
3	4993	2.0476	11160
3	4999	2.04848	11196
3	5031	2.05304	11232
3	5037	2.05392	11268
3	5065	2.05848	11304
3	5071	2.05936	11340
3	5227	2.06392	11376
3	5237	2.0648	11412
3	5247	2.06936	11448
3	5253	2.06984	11484
3	5259	2.07024	11520
3	5265	2.07072	11556
3	5271	2.0748	11592
3	5277	2.07528	11628
3	5283	2.07568	11664
3	5289	2.07616	11700
3	5295	2.08024	11736
3	5301	2.08072	11772
3	5307	2.08112	11808
3	5313	2.0816	11844
3	5319	2.08568	11880
3	5325	2.08616	11916
3	5331	2.08656	11952
3	5337	2.08704	11988
3	5343	2.09112	12024
3	5349	2.0916	12060
3	5355	2.092	12096
3	5361	2.09248	12132
3	5374	2.09704	12168
3	5380	2.09744	12204
3	5386	2.09792	12240
3	5420	2.10248	12276
3	5426	2.10288	12312
3	5432	2.10336	12348
3	5445	2.10792	12384
3	5451	2.10832	12420
3	5457	2.1088	12456
3	5463	2.11336	12492
3	5469	2.11376	12528
3	5475	2.11424	12564
3	5481	2.1188	12600
3	5487	2.1192	12636
3	5493	2.11968	12672
3	5499	2.12424	12708
3	5505	2.12464	12744
3	5511	2.12512	12780
3	5517	2.12968	12816
3	5523	2.13008	12852
3	5529	2.13056	12888
3	5535	2.13512	12924
3	5541	2.13552	12960
3	5547	2.136	12996
3	5553	2.14056	13032
3	5559	2.14096	13068
3	5565	2.14144	13104
3	5571	2.146	13140
3	5577	2.1464	13176
3	5583	2.14688	13212
3	5601	2.15144	13248
3	5607	2.15184	13284
3	5613	2.15232	13320
3	5619	2.15688	13356
3	5625	2.15728	13392
3	5631	2.15776	13428
3	5637	2.16232	13464
3	5643	2.16272	13500
3	5649	2.1632	13536
3	5655	2.16776	13572
3	5661	2.16816	13608
3	5667	2.16864	13644
3	5673	2.1732	13680
3	5679	2.1736	13716
3	5685	2.17408	13752
3	5691	2.17864	13788
3	5697	2.17904	13824
3	5703	2.17952	13860
3	5709	2.18408	13896
3	5715	2.18448	13932
3	5721	2.18496	13968
3	5727	2.18952	14004
3	5733	2.18992	14040
3	5739	2.1904	14076
3	5745	2.19496	14112
3	5751	2.19536	14148
3	5757	2.19584	14184
3	5787	2.2004	14220
3	5793	2.2008	14256
3	5799	2.20128	14292
3	5809	2.20584	14328
3	5815	2.20624	14364
3	5836	2.21128	14400
3	5865	2.21672	14436
3	5883	2.22216	14472
3	5901	2.2276	14508
3	5922	2.23304	14544
3	5947	2.23848	14580
3	5961	2.24392	14616
3	5975	2.24936	14652
3	6003	2.2548	14688
3	6021	2.26024	14724
3	6035	2.26568	14760
3	6049	2.27112	14796
3	6063	2.27656	14832
3	6077	2.282	14868
3	6091	2.28744	14904
3	6105	2.29288	14940
3	6119	2.29832	14976
3	6165	2.30376	15012
3	6179	2.3092	15048
3	6193	2.31464	15084
3	6619	2.42232	15120
3	6620	2.42232	15156
3	6631	2.42776	15192
3	6632	2.42776	15228
3	6643	2.4332	15264
3	6644	2.4332	15300
3	6655	2.43864	15336
3	6656	2.43864	15372
3	6667	2.44408	15408
3	6668	2.44408	15444
3	6679	2.44952	15480
3	6680	2.44952	15516
3	6708	2.45496	15552
3	6722	2.4604	15588
3	6736	2.46584	15624
3	6750	2.47128	15660
3	6764	2.47672	15696
3	6774	2.48216	15732
3	6784	2.4876	15768
3	6794	2.49304	15804
3	6804	2.49848	15840
3	6840	2.50392	15876
3	6861	2.50936	15912
3	6871	2.5148	15948
3	6881	2.52024	15984
3	6891	2.52568	16020
3	6901	2.53112	16056
3	6911	2.53656	16092
3	6921	2.542	16128
3	6931	2.54744	16164
3	6961	2.55288	16200
3	6992	2.55832	16236
3	7002	2.56376	16272

