version 2
run B-0-20190918-00:46:53-14358
attr configname B
attr datetime 20190918-00:46:53
attr experiment B
attr inifile SimV2.ini
attr iterationvars ""
attr iterationvarsf ""
attr measurement ""
attr network NetworkTormV2
attr processid 14358
attr repetition 0
attr replication #0
attr resultdir results
attr runnumber 0
attr seedset 0
param **.mobility.traceFile "\"paths/B.movements\""
param **.numNodes 4
param **.wirelessIfc.wirelessRange 40m
param **.bluetoothIfc.wirelessRange 40m
param **application.destinationAddr "\"Wf:00:00:00:00:02\""
param **application.destinationBTAddr "\"Bt:00:00:00:00:02\""
param **application.nodesThatGen true
param **application.nodesGenMsg "\"0,1\""
param **application.startMultipleMsg true
param **application.numMultipleMsg 100
param **application.hopsListSize 50
param **.numNodes 2
param **.application.usedRNG 1
param **.application.dataGenerationInterval 1ms
param **.application.dataSizeInBytes 10
param **.application.ttl 999999s
param **application.destinationAddr "\"Wf:00:00:00:00:02\""
param **application.destinationBTAddr "\"Bt:00:00:00:00:02\""
param **application.nodesThatGen true
param **application.nodesGenMsg "\"0\""
param **application.startMultipleMsg true
param **application.numMultipleMsg 100
param **application.hopsListSize 50
param **.application.endGeneratingMsg 999999s
param **.routingLayer "\"RoutingLayer\""
param **.routing.maximumCacheSize 5000byte
param **.routing.maximumHopCount 25
param **.routing.useTTL false
param **.routing.waitBFsend 0.5
param **.routing.max_age 999999s
param **.neighboring.antiEntropyInterval 500ms
param **.neighboring.maximumRandomBackoffDuration 1s
param **.neighboring.delayPerDataMsg 0.1
param **neighboring.usedRNG 2
param **.neighboring.GWAddr "\"Wf:00:00:00:00:02\""
param **.neighboring.sendWifiFirst true
param **.neighboring.maxLengthGraph 20
param **.neighboring.max_age 999999s
param **.wirelessIfc.wirelessRange 15m
param **.wirelessIfc.neighbourScanInterval 50ms
param **.wirelessIfc.bandwidthBitRate 100000bps
param **.wirelessIfc.wirelessHeaderSize 32byte
param **.wirelessIfc.minSSI -90
param **.wirelessIfc.limitQueueTime 400ms
param **.bluetoothIfc.wirelessRange 15m
param **.bluetoothIfc.neighbourScanInterval 100ms
param **.bluetoothIfc.bandwidthBitRate 100000bps
param **.bluetoothIfc.wirelessHeaderSize 16byte
param **.bluetoothIfc.minSSI -90
param **.mobilityType "\"BonnMotionMobility\""
param **.mobility.traceFile "\"paths/Moves2.movements\""
param **.mobility.is3D false
param **.mobility.nodeId -1

vector 0 NetworkTormV2 neighbourhoodSize:vector ETV
attr source neighbourhoodSize
vector 1 NetworkTormV2 deliveryRatio:vector ETV
attr source sum(totalDataBytesReceived)/sum(totalDataBytesReceivableByAllNodes)
vector 2 NetworkTormV2 dataBytesReceivedSum:vector ETV
attr source sum(dataBytesReceived)
vector 3 NetworkTormV2 totalBytesReceivedSum:vector ETV
attr source sum(totalBytesReceived)
0	13	0.05	2
0	14	0.05	2
0	15	0.05	2
0	16	0.05	2
0	26	0.1	2
0	28	0.1	2
0	29	0.1	2
0	30	0.1	2
0	31	0.1	2
0	32	0.1	2
0	33	0.1	2
0	34	0.1	2
0	249	0.15	2
0	250	0.15	2
0	251	0.15	2
0	252	0.15	2
0	461	0.2	2
0	462	0.2	2
0	463	0.2	2
0	464	0.2	2
0	465	0.2	2
0	466	0.2	2
0	467	0.2	2
0	468	0.2	2
0	485	0.25	2
0	486	0.25	2
0	487	0.25	2
0	488	0.25	2
0	497	0.3	2
0	498	0.3	2
0	499	0.3	2
0	500	0.3	2
0	501	0.3	2
0	502	0.3	2
0	503	0.3	2
0	504	0.3	2
0	521	0.35	2
0	522	0.35	2
0	523	0.35	2
0	524	0.35	2
0	533	0.4	2
0	534	0.4	2
0	535	0.4	2
0	536	0.4	2
0	537	0.4	2
0	538	0.4	2
0	539	0.4	2
0	540	0.4	2
0	557	0.45	2
0	558	0.45	2
0	559	0.45	2
0	560	0.45	2
0	569	0.5	2
0	570	0.5	2
0	571	0.5	2
0	572	0.5	2
0	573	0.5	2
0	574	0.5	2
0	575	0.5	2
0	576	0.5	2
0	593	0.55	2
0	594	0.55	2
0	595	0.55	2
0	596	0.55	2
0	605	0.6	2
0	606	0.6	2
0	607	0.6	2
0	608	0.6	2
0	609	0.6	2
0	610	0.6	2
0	611	0.6	2
0	612	0.6	2
0	629	0.65	2
0	630	0.65	2
0	631	0.65	2
0	632	0.65	2
0	641	0.7	2
0	642	0.7	2
0	643	0.7	2
0	644	0.7	2
0	645	0.7	2
0	646	0.7	2
0	647	0.7	2
0	648	0.7	2
0	665	0.75	2
0	666	0.75	2
0	667	0.75	2
0	668	0.75	2
0	677	0.8	2
0	678	0.8	2
0	679	0.8	2
0	680	0.8	2
0	681	0.8	2
0	682	0.8	2
0	683	0.8	2
0	684	0.8	2
0	701	0.85	2
0	702	0.85	2
0	703	0.85	2
0	704	0.85	2
0	713	0.9	2
0	714	0.9	2
0	715	0.9	2
0	716	0.9	2
0	717	0.9	2
0	718	0.9	2
0	719	0.9	2
0	720	0.9	2
0	737	0.95	2
0	738	0.95	2
0	739	0.95	2
0	740	0.95	2
0	749	1	2
0	750	1	2
0	751	1	2
0	752	1	2
0	753	1	2
0	754	1	2
0	755	1	2
0	756	1	2
0	773	1.05	2
0	774	1.05	2
0	775	1.05	2
0	776	1.05	2
0	785	1.1	2
0	786	1.1	2
0	787	1.1	2
0	788	1.1	2
0	789	1.1	2
0	790	1.1	2
0	791	1.1	2
0	792	1.1	2
0	1063	1.15	2
0	1064	1.15	2
0	1065	1.15	2
0	1066	1.15	2
0	1103	1.2	2
0	1104	1.2	2
0	1105	1.2	2
0	1106	1.2	2
0	1107	1.2	2
0	1108	1.2	2
0	1109	1.2	2
0	1110	1.2	2
0	1145	1.25	2
0	1146	1.25	2
0	1147	1.25	2
0	1148	1.25	2
0	1185	1.3	2
0	1186	1.3	2
0	1187	1.3	2
0	1188	1.3	2
0	1189	1.3	2
0	1190	1.3	2
0	1191	1.3	2
0	1192	1.3	2
0	1228	1.35	2
0	1229	1.35	2
0	1230	1.35	2
0	1231	1.35	2
0	1261	1.4	2
0	1262	1.4	2
0	1263	1.4	2
0	1264	1.4	2
0	1265	1.4	2
0	1266	1.4	2
0	1267	1.4	2
0	1268	1.4	2
0	1313	1.45	2
0	1314	1.45	2
0	1315	1.45	2
0	1316	1.45	2
0	1338	1.5	2
0	1339	1.5	2
0	1340	1.5	2
0	1341	1.5	2
0	1342	1.5	2
0	1343	1.5	2
0	1344	1.5	2
0	1345	1.5	2
0	1377	1.55	2
0	1378	1.55	2
0	1379	1.55	2
0	1380	1.55	2
0	1411	1.6	2
0	1412	1.6	2
0	1413	1.6	2
0	1414	1.6	2
0	1415	1.6	2
0	1416	1.6	2
0	1417	1.6	2
0	1418	1.6	2
0	1465	1.65	2
0	1466	1.65	2
0	1467	1.65	2
0	1468	1.65	2
0	1517	1.7	2
0	1518	1.7	2
0	1519	1.7	2
0	1520	1.7	2
0	1521	1.7	2
0	1522	1.7	2
0	1523	1.7	2
0	1524	1.7	2
0	1551	1.75	2
0	1552	1.75	2
0	1553	1.75	2
0	1554	1.75	2
0	1581	1.8	2
0	1582	1.8	2
0	1583	1.8	2
0	1584	1.8	2
0	1585	1.8	2
0	1586	1.8	2
0	1587	1.8	2
0	1588	1.8	2
0	1629	1.85	2
0	1630	1.85	2
0	1631	1.85	2
0	1632	1.85	2
0	1657	1.9	2
0	1658	1.9	2
0	1659	1.9	2
0	1660	1.9	2
0	1661	1.9	2
0	1662	1.9	2
0	1663	1.9	2
0	1664	1.9	2
0	1696	1.95	2
0	1697	1.95	2
0	1698	1.95	2
0	1699	1.95	2
0	1736	2	2
0	1737	2	2
0	1738	2	2
0	1739	2	2
0	1740	2	2
0	1741	2	2
0	1742	2	2
0	1743	2	2
0	1772	2.05	2
0	1773	2.05	2
0	1774	2.05	2
0	1775	2.05	2
0	1815	2.1	2
0	1816	2.1	2
0	1817	2.1	2
0	1818	2.1	2
0	1819	2.1	2
0	1820	2.1	2
0	1821	2.1	2
0	1822	2.1	2
0	1848	2.15	2
0	1849	2.15	2
0	1850	2.15	2
0	1851	2.15	2
0	1879	2.2	2
0	1880	2.2	2
0	1881	2.2	2
0	1882	2.2	2
0	1883	2.2	2
0	1884	2.2	2
0	1885	2.2	2
0	1886	2.2	2
0	1931	2.25	2
0	1932	2.25	2
0	1933	2.25	2
0	1934	2.25	2
0	1964	2.3	2
0	1965	2.3	2
0	1966	2.3	2
0	1967	2.3	2
0	1968	2.3	2
0	1969	2.3	2
0	1970	2.3	2
0	1971	2.3	2
0	2010	2.35	2
0	2011	2.35	2
0	2012	2.35	2
0	2013	2.35	2
0	2058	2.4	2
0	2059	2.4	2
0	2060	2.4	2
0	2061	2.4	2
0	2062	2.4	2
0	2063	2.4	2
0	2064	2.4	2
0	2065	2.4	2
0	2104	2.45	2
0	2105	2.45	2
0	2106	2.45	2
0	2107	2.45	2
0	2144	2.5	2
0	2145	2.5	2
0	2146	2.5	2
0	2147	2.5	2
0	2148	2.5	2
0	2149	2.5	2
0	2150	2.5	2
0	2151	2.5	2
0	2180	2.55	2
0	2181	2.55	2
0	2182	2.55	2
0	2183	2.55	2
0	2192	2.6	2
0	2193	2.6	2
0	2194	2.6	2
0	2195	2.6	2
0	2196	2.6	2
0	2197	2.6	2
0	2198	2.6	2
0	2199	2.6	2
0	2216	2.65	2
0	2217	2.65	2
0	2218	2.65	2
0	2219	2.65	2
0	2228	2.7	2
0	2229	2.7	2
0	2230	2.7	2
0	2231	2.7	2
0	2232	2.7	2
0	2233	2.7	2
0	2234	2.7	2
0	2235	2.7	2
0	2307	2.75	2
0	2308	2.75	2
0	2309	2.75	2
0	2310	2.75	2
0	2319	2.8	2
0	2320	2.8	2
0	2321	2.8	2
0	2322	2.8	2
0	2323	2.8	2
0	2324	2.8	2
0	2325	2.8	2
0	2326	2.8	2
0	2343	2.85	2
0	2344	2.85	2
0	2345	2.85	2
0	2346	2.85	2
0	2358	2.9	2
0	2359	2.9	2
0	2360	2.9	2
0	2361	2.9	2
0	2362	2.9	2
0	2363	2.9	2
0	2364	2.9	2
0	2365	2.9	2
0	2382	2.95	2
0	2383	2.95	2
0	2384	2.95	2
0	2385	2.95	2
0	2394	3	2
0	2395	3	2
0	2396	3	2
0	2397	3	2
0	2398	3	2
0	2399	3	2
0	2400	3	2
0	2401	3	2
0	2418	3.05	2
0	2419	3.05	2
0	2420	3.05	2
0	2421	3.05	2
0	2430	3.1	2
0	2431	3.1	2
0	2432	3.1	2
0	2433	3.1	2
0	2434	3.1	2
0	2435	3.1	2
0	2436	3.1	2
0	2437	3.1	2
0	2454	3.15	2
0	2455	3.15	2
0	2456	3.15	2
0	2457	3.15	2
0	2466	3.2	2
0	2467	3.2	2
0	2468	3.2	2
0	2469	3.2	2
0	2470	3.2	2
0	2471	3.2	2
0	2472	3.2	2
0	2473	3.2	2
0	2490	3.25	2
0	2491	3.25	2
0	2492	3.25	2
0	2493	3.25	2
0	2745	3.3	2
0	2746	3.3	2
0	2747	3.3	2
0	2748	3.3	2
0	2749	3.3	2
0	2750	3.3	2
0	2751	3.3	2
0	2752	3.3	2
0	2800	3.35	2
0	2801	3.35	2
0	2802	3.35	2
0	2803	3.35	2
0	2842	3.4	2
0	2843	3.4	2
0	2844	3.4	2
0	2845	3.4	2
0	2846	3.4	2
0	2847	3.4	2
0	2848	3.4	2
0	2849	3.4	2
0	2919	3.45	2
0	2920	3.45	2
0	2921	3.45	2
0	2922	3.45	2
0	2935	3.5	2
0	2936	3.5	2
0	2937	3.5	2
0	2938	3.5	2
0	2939	3.5	2
0	2940	3.5	2
0	2941	3.5	2
0	2942	3.5	2
0	2971	3.55	2
0	2972	3.55	2
0	2973	3.55	2
0	2974	3.55	2
0	3002	3.6	2
0	3003	3.6	2
0	3004	3.6	2
0	3005	3.6	2
0	3006	3.6	2
0	3007	3.6	2
0	3008	3.6	2
0	3009	3.6	2
0	3047	3.65	2
0	3048	3.65	2
0	3049	3.65	2
0	3050	3.65	2
0	3096	3.7	2
0	3097	3.7	2
0	3098	3.7	2
0	3099	3.7	2
0	3100	3.7	2
0	3101	3.7	2
0	3102	3.7	2
0	3103	3.7	2
0	3147	3.75	2
0	3148	3.75	2
0	3149	3.75	2
0	3150	3.75	2
0	3184	3.8	2
0	3185	3.8	2
0	3186	3.8	2
0	3187	3.8	2
0	3188	3.8	2
0	3189	3.8	2
0	3190	3.8	2
0	3191	3.8	2
0	3273	3.85	2
0	3274	3.85	2
0	3275	3.85	2
0	3276	3.85	2
0	3306	3.9	2
0	3307	3.9	2
0	3308	3.9	2
0	3309	3.9	2
0	3310	3.9	2
0	3311	3.9	2
0	3312	3.9	2
0	3313	3.9	2
0	3340	3.95	2
0	3341	3.95	2
0	3342	3.95	2
0	3343	3.95	2
0	3387	4	2
0	3388	4	2
0	3389	4	2
0	3390	4	2
0	3391	4	2
0	3392	4	2
0	3393	4	2
0	3394	4	2
0	3420	4.05	2
0	3421	4.05	2
0	3422	4.05	2
0	3423	4.05	2
0	3451	4.1	2
0	3452	4.1	2
0	3453	4.1	2
0	3454	4.1	2
0	3455	4.1	2
0	3456	4.1	2
0	3457	4.1	2
0	3458	4.1	2
0	3484	4.15	2
0	3485	4.15	2
0	3486	4.15	2
0	3487	4.15	2
0	3524	4.2	2
0	3525	4.2	2
0	3526	4.2	2
0	3527	4.2	2
0	3528	4.2	2
0	3529	4.2	2
0	3530	4.2	2
0	3531	4.2	2
0	3572	4.25	2
0	3573	4.25	2
0	3574	4.25	2
0	3575	4.25	2
0	3615	4.3	2
0	3616	4.3	2
0	3617	4.3	2
0	3618	4.3	2
0	3619	4.3	2
0	3620	4.3	2
0	3621	4.3	2
0	3622	4.3	2
0	3676	4.35	2
0	3677	4.35	2
0	3678	4.35	2
0	3679	4.35	2
0	3729	4.4	2
0	3730	4.4	2
0	3731	4.4	2
0	3732	4.4	2
0	3733	4.4	2
0	3734	4.4	2
0	3735	4.4	2
0	3736	4.4	2
0	3774	4.45	2
0	3775	4.45	2
0	3776	4.45	2
0	3777	4.45	2
0	3798	4.5	2
0	3799	4.5	2
0	3800	4.5	2
0	3801	4.5	2
0	3802	4.5	2
0	3803	4.5	2
0	3804	4.5	2
0	3805	4.5	2
0	3837	4.55	2
0	3838	4.55	2
0	3839	4.55	2
0	3840	4.55	2
0	3874	4.6	2
0	3875	4.6	2
0	3876	4.6	2
0	3877	4.6	2
0	3878	4.6	2
0	3879	4.6	2
0	3880	4.6	2
0	3881	4.6	2
0	3919	4.65	2
0	3920	4.65	2
0	3921	4.65	2
0	3922	4.65	2
0	3949	4.7	2
0	3950	4.7	2
0	3951	4.7	2
0	3952	4.7	2
0	3953	4.7	2
0	3954	4.7	2
0	3955	4.7	2
0	3956	4.7	2
0	3973	4.75	2
0	3974	4.75	2
0	3975	4.75	2
0	3976	4.75	2
0	3985	4.8	2
0	3986	4.8	2
0	3987	4.8	2
0	3988	4.8	2
0	3989	4.8	2
0	3990	4.8	2
0	3991	4.8	2
0	3992	4.8	2
0	4009	4.85	2
0	4010	4.85	2
0	4011	4.85	2
0	4012	4.85	2
0	4031	4.9	2
0	4032	4.9	2
0	4033	4.9	2
0	4034	4.9	2
0	4035	4.9	2
0	4036	4.9	2
0	4037	4.9	2
0	4038	4.9	2
0	4055	4.95	2
0	4056	4.95	2
0	4057	4.95	2
0	4058	4.95	2
0	4070	5	2
0	4071	5	2
0	4072	5	2
0	4073	5	2
0	4074	5	2
0	4075	5	2
0	4076	5	2
0	4077	5	2
0	4097	5.05	2
0	4098	5.05	2
0	4099	5.05	2
0	4100	5.05	2
0	4109	5.1	2
0	4110	5.1	2
0	4111	5.1	2
0	4112	5.1	2
0	4113	5.1	2
0	4114	5.1	2
0	4115	5.1	2
0	4116	5.1	2
0	4133	5.15	2
0	4134	5.15	2
0	4135	5.15	2
0	4136	5.15	2
0	4145	5.2	2
0	4146	5.2	2
0	4147	5.2	2
0	4148	5.2	2
0	4149	5.2	2
0	4150	5.2	2
0	4151	5.2	2
0	4152	5.2	2
0	4169	5.25	2
0	4170	5.25	2
0	4171	5.25	2
0	4172	5.25	2
0	4181	5.3	2
0	4182	5.3	2
0	4183	5.3	2
0	4184	5.3	2
0	4185	5.3	2
0	4186	5.3	2
0	4187	5.3	2
0	4188	5.3	2
0	4205	5.35	2
0	4206	5.35	2
0	4207	5.35	2
0	4208	5.35	2
0	4217	5.4	2
0	4218	5.4	2
0	4219	5.4	2
0	4220	5.4	2
0	4221	5.4	2
0	4222	5.4	2
0	4223	5.4	2
0	4224	5.4	2
0	4257	5.45	2
0	4258	5.45	2
0	4259	5.45	2
0	4260	5.45	2
0	4269	5.5	2
0	4270	5.5	2
0	4271	5.5	2
0	4272	5.5	2
0	4273	5.5	2
0	4274	5.5	2
0	4275	5.5	2
0	4276	5.5	2
0	4293	5.55	2
0	4294	5.55	2
0	4295	5.55	2
0	4296	5.55	2
0	4560	5.6	2
0	4561	5.6	2
0	4562	5.6	2
0	4563	5.6	2
0	4564	5.6	2
0	4565	5.6	2
0	4566	5.6	2
0	4567	5.6	2
0	4602	5.65	2
0	4603	5.65	2
0	4604	5.65	2
0	4605	5.65	2
0	4648	5.7	2
0	4649	5.7	2
0	4650	5.7	2
0	4651	5.7	2
0	4652	5.7	2
0	4653	5.7	2
0	4654	5.7	2
0	4655	5.7	2
0	4694	5.75	2
0	4695	5.75	2
0	4696	5.75	2
0	4697	5.75	2
0	4725	5.8	2
0	4726	5.8	2
0	4727	5.8	2
0	4728	5.8	2
0	4729	5.8	2
0	4730	5.8	2
0	4731	5.8	2
0	4732	5.8	2
0	4779	5.85	2
0	4780	5.85	2
0	4781	5.85	2
0	4782	5.85	2
0	4816	5.9	2
0	4817	5.9	2
0	4818	5.9	2
0	4819	5.9	2
0	4820	5.9	2
0	4821	5.9	2
0	4822	5.9	2
0	4823	5.9	2
0	4858	5.95	2
0	4859	5.95	2
0	4860	5.95	2
0	4861	5.95	2
0	4905	6	2
0	4906	6	2
0	4907	6	2
0	4908	6	2
0	4909	6	2
0	4910	6	2
0	4911	6	2
0	4912	6	2
0	4942	6.05	2
0	4943	6.05	2
0	4944	6.05	2
0	4945	6.05	2
0	4984	6.1	2
0	4985	6.1	2
0	4986	6.1	2
0	4987	6.1	2
0	4988	6.1	2
0	4989	6.1	2
0	4990	6.1	2
0	4991	6.1	2
0	5052	6.15	2
0	5053	6.15	2
0	5054	6.15	2
0	5055	6.15	2
0	5076	6.2	2
0	5077	6.2	2
0	5078	6.2	2
0	5079	6.2	2
0	5080	6.2	2
0	5081	6.2	2
0	5082	6.2	2
0	5083	6.2	2
0	5131	6.25	2
0	5132	6.25	2
0	5133	6.25	2
0	5134	6.25	2
0	5176	6.3	2
0	5177	6.3	2
0	5178	6.3	2
0	5179	6.3	2
0	5180	6.3	2
0	5181	6.3	2
0	5182	6.3	2
0	5183	6.3	2
0	5225	6.35	2
0	5226	6.35	2
0	5227	6.35	2
0	5228	6.35	2
0	5265	6.4	2
0	5266	6.4	2
0	5267	6.4	2
0	5268	6.4	2
0	5269	6.4	2
0	5270	6.4	2
0	5271	6.4	2
0	5272	6.4	2
0	5298	6.45	2
0	5299	6.45	2
0	5300	6.45	2
0	5301	6.45	2
0	5332	6.5	2
0	5333	6.5	2
0	5334	6.5	2
0	5335	6.5	2
0	5336	6.5	2
0	5337	6.5	2
0	5338	6.5	2
0	5339	6.5	2
0	5402	6.55	2
0	5403	6.55	2
0	5404	6.55	2
0	5405	6.55	2
0	5441	6.6	2
0	5442	6.6	2
0	5443	6.6	2
0	5444	6.6	2
0	5445	6.6	2
0	5446	6.6	2
0	5447	6.6	2
0	5448	6.6	2
0	5496	6.65	2
0	5497	6.65	2
0	5498	6.65	2
0	5499	6.65	2
0	5545	6.7	2
0	5546	6.7	2
0	5547	6.7	2
0	5548	6.7	2
0	5549	6.7	2
0	5550	6.7	2
0	5551	6.7	2
0	5552	6.7	2
0	5591	6.75	2
0	5592	6.75	2
0	5593	6.75	2
0	5594	6.75	2
0	5625	6.8	2
0	5626	6.8	2
0	5627	6.8	2
0	5628	6.8	2
0	5629	6.8	2
0	5630	6.8	2
0	5631	6.8	2
0	5632	6.8	2
0	5676	6.85	2
0	5677	6.85	2
0	5678	6.85	2
0	5679	6.85	2
0	5710	6.9	2
0	5711	6.9	2
0	5712	6.9	2
0	5713	6.9	2
0	5714	6.9	2
0	5715	6.9	2
0	5716	6.9	2
0	5717	6.9	2
0	5756	6.95	2
0	5757	6.95	2
0	5758	6.95	2
0	5759	6.95	2
0	5780	7	2
0	5781	7	2
0	5782	7	2
0	5783	7	2
0	5784	7	2
0	5785	7	2
0	5786	7	2
0	5787	7	2
0	5844	7.05	2
0	5845	7.05	2
0	5846	7.05	2
0	5847	7.05	2
0	5881	7.1	2
0	5882	7.1	2
0	5883	7.1	2
0	5884	7.1	2
0	5885	7.1	2
0	5886	7.1	2
0	5887	7.1	2
0	5888	7.1	2
0	5927	7.15	2
0	5928	7.15	2
0	5929	7.15	2
0	5930	7.15	2
0	5970	7.2	2
0	5971	7.2	2
0	5972	7.2	2
0	5973	7.2	2
0	5974	7.2	2
0	5975	7.2	2
0	5976	7.2	2
0	5977	7.2	2
0	6028	7.25	2
0	6029	7.25	2
0	6030	7.25	2
0	6031	7.25	2
0	6048	7.3	2
0	6049	7.3	2
0	6050	7.3	2
0	6051	7.3	2
0	6052	7.3	2
0	6053	7.3	2
0	6054	7.3	2
0	6055	7.3	2
0	6072	7.35	2
0	6073	7.35	2
0	6074	7.35	2
0	6075	7.35	2
0	6084	7.4	2
0	6085	7.4	2
0	6086	7.4	2
0	6087	7.4	2
0	6088	7.4	2
0	6089	7.4	2
0	6090	7.4	2
0	6091	7.4	2
0	6111	7.45	2
0	6112	7.45	2
0	6113	7.45	2
0	6114	7.45	2
0	6123	7.5	2
0	6124	7.5	2
0	6125	7.5	2
0	6126	7.5	2
0	6127	7.5	2
0	6128	7.5	2
0	6129	7.5	2
0	6130	7.5	2
0	6147	7.55	2
0	6148	7.55	2
0	6149	7.55	2
0	6150	7.55	2
0	6159	7.6	2
0	6160	7.6	2
0	6161	7.6	2
0	6162	7.6	2
0	6163	7.6	2
0	6164	7.6	2
0	6165	7.6	2
0	6166	7.6	2
0	6196	7.65	2
0	6197	7.65	2
0	6198	7.65	2
0	6199	7.65	2
0	6208	7.7	2
0	6209	7.7	2
0	6210	7.7	2
0	6211	7.7	2
0	6212	7.7	2
0	6213	7.7	2
0	6214	7.7	2
0	6215	7.7	2
0	6232	7.75	2
0	6233	7.75	2
0	6234	7.75	2
0	6235	7.75	2
0	6247	7.8	2
0	6248	7.8	2
0	6249	7.8	2
0	6250	7.8	2
0	6251	7.8	2
0	6252	7.8	2
0	6253	7.8	2
0	6254	7.8	2
0	6271	7.85	2
0	6272	7.85	2
0	6273	7.85	2
0	6274	7.85	2
0	6283	7.9	2
0	6284	7.9	2
0	6285	7.9	2
0	6286	7.9	2
0	6287	7.9	2
0	6288	7.9	2
0	6289	7.9	2
0	6290	7.9	2
0	6307	7.95	2
0	6308	7.95	2
0	6309	7.95	2
0	6310	7.95	2
0	6319	8	2
0	6320	8	2
0	6321	8	2
0	6322	8	2
0	6323	8	2
0	6324	8	2
0	6325	8	2
0	6326	8	2
0	6343	8.05	2
0	6344	8.05	2
0	6345	8.05	2
0	6346	8.05	2
0	6368	8.1	2
0	6369	8.1	2
0	6370	8.1	2
0	6371	8.1	2
0	6372	8.1	2
0	6373	8.1	2
0	6374	8.1	2
0	6375	8.1	2
0	6392	8.15	2
0	6393	8.15	2
0	6394	8.15	2
0	6395	8.15	2
0	6404	8.2	2
0	6405	8.2	2
0	6406	8.2	2
0	6407	8.2	2
0	6408	8.2	2
0	6409	8.2	2
0	6410	8.2	2
0	6411	8.2	2
0	6431	8.25	2
0	6432	8.25	2
0	6433	8.25	2
0	6434	8.25	2
0	6443	8.3	2
0	6444	8.3	2
0	6445	8.3	2
0	6446	8.3	2
0	6447	8.3	2
0	6448	8.3	2
0	6449	8.3	2
0	6450	8.3	2
0	6467	8.35	2
0	6468	8.35	2
0	6469	8.35	2
0	6470	8.35	2
0	6479	8.4	2
0	6480	8.4	2
0	6481	8.4	2
0	6482	8.4	2
0	6483	8.4	2
0	6484	8.4	2
0	6485	8.4	2
0	6486	8.4	2
0	6503	8.45	2
0	6504	8.45	2
0	6505	8.45	2
0	6506	8.45	2
0	6515	8.5	2
0	6516	8.5	2
0	6517	8.5	2
0	6518	8.5	2
0	6519	8.5	2
0	6520	8.5	2
0	6521	8.5	2
0	6522	8.5	2
0	6539	8.55	2
0	6540	8.55	2
0	6541	8.55	2
0	6542	8.55	2
0	6551	8.6	2
0	6552	8.6	2
0	6553	8.6	2
0	6554	8.6	2
0	6555	8.6	2
0	6556	8.6	2
0	6557	8.6	2
0	6558	8.6	2
0	6578	8.65	2
0	6579	8.65	2
0	6580	8.65	2
0	6581	8.65	2
0	6590	8.7	2
0	6591	8.7	2
0	6592	8.7	2
0	6593	8.7	2
0	6594	8.7	2
0	6595	8.7	2
0	6596	8.7	2
0	6597	8.7	2
0	6614	8.75	2
0	6615	8.75	2
0	6616	8.75	2
0	6617	8.75	2
0	6649	8.8	2
0	6650	8.8	2
0	6651	8.8	2
0	6652	8.8	2
0	6653	8.8	2
0	6654	8.8	2
0	6655	8.8	2
0	6656	8.8	2
0	6673	8.85	2
0	6674	8.85	2
0	6675	8.85	2
0	6676	8.85	2
0	6685	8.9	2
0	6686	8.9	2
0	6687	8.9	2
0	6688	8.9	2
0	6689	8.9	2
0	6690	8.9	2
0	6691	8.9	2
0	6692	8.9	2
0	6712	8.95	2
0	6713	8.95	2
0	6714	8.95	2
0	6715	8.95	2
0	6724	9	2
0	6725	9	2
0	6726	9	2
0	6727	9	2
0	6728	9	2
0	6729	9	2
0	6730	9	2
0	6731	9	2
0	6748	9.05	2
0	6749	9.05	2
0	6750	9.05	2
0	6751	9.05	2
0	6760	9.1	2
0	6761	9.1	2
0	6762	9.1	2
0	6763	9.1	2
0	6764	9.1	2
0	6765	9.1	2
0	6766	9.1	2
0	6767	9.1	2
0	6784	9.15	2
0	6785	9.15	2
0	6786	9.15	2
0	6787	9.15	2
0	6799	9.2	2
0	6800	9.2	2
0	6801	9.2	2
0	6802	9.2	2
0	6803	9.2	2
0	6804	9.2	2
0	6805	9.2	2
0	6806	9.2	2
0	6826	9.25	2
0	6827	9.25	2
0	6828	9.25	2
0	6829	9.25	2
0	6838	9.3	2
0	6839	9.3	2
0	6840	9.3	2
0	6841	9.3	2
0	6842	9.3	2
0	6843	9.3	2
0	6844	9.3	2
0	6845	9.3	2
0	6862	9.35	2
0	6863	9.35	2
0	6864	9.35	2
0	6865	9.35	2
0	6887	9.4	2
0	6888	9.4	2
0	6889	9.4	2
0	6890	9.4	2
0	6891	9.4	2
0	6892	9.4	2
0	6893	9.4	2
0	6894	9.4	2
0	6911	9.45	2
0	6912	9.45	2
0	6913	9.45	2
0	6914	9.45	2
0	6923	9.5	2
0	6924	9.5	2
0	6925	9.5	2
0	6926	9.5	2
0	6927	9.5	2
0	6928	9.5	2
0	6929	9.5	2
0	6930	9.5	2
0	6947	9.55	2
0	6948	9.55	2
0	6949	9.55	2
0	6950	9.55	2
0	6959	9.6	2
0	6960	9.6	2
0	6961	9.6	2
0	6962	9.6	2
0	6963	9.6	2
0	6964	9.6	2
0	6965	9.6	2
0	6966	9.6	2
0	6983	9.65	2
0	6984	9.65	2
0	6985	9.65	2
0	6986	9.65	2
0	7008	9.7	2
0	7009	9.7	2
0	7010	9.7	2
0	7011	9.7	2
0	7012	9.7	2
0	7013	9.7	2
0	7014	9.7	2
0	7015	9.7	2
0	7032	9.75	2
0	7033	9.75	2
0	7034	9.75	2
0	7035	9.75	2
0	7047	9.8	2
0	7048	9.8	2
0	7049	9.8	2
0	7050	9.8	2
0	7051	9.8	2
0	7052	9.8	2
0	7053	9.8	2
0	7054	9.8	2
0	7074	9.85	2
0	7075	9.85	2
0	7076	9.85	2
0	7077	9.85	2
0	7086	9.9	2
0	7087	9.9	2
0	7088	9.9	2
0	7089	9.9	2
0	7090	9.9	2
0	7091	9.9	2
0	7092	9.9	2
0	7093	9.9	2
0	7110	9.95	2
0	7111	9.95	2
0	7112	9.95	2
0	7113	9.95	2
0	7122	10	2
0	7123	10	2
0	7124	10	2
0	7125	10	2
0	7126	10	2
0	7127	10	2
0	7128	10	2
0	7129	10	2
0	7146	10.05	2
0	7147	10.05	2
0	7148	10.05	2
0	7149	10.05	2
0	7158	10.1	2
0	7159	10.1	2
0	7160	10.1	2
0	7161	10.1	2
0	7162	10.1	2
0	7163	10.1	2
0	7164	10.1	2
0	7165	10.1	2
0	7182	10.15	2
0	7183	10.15	2
0	7184	10.15	2
0	7185	10.15	2
0	7194	10.2	2
0	7195	10.2	2
0	7196	10.2	2
0	7197	10.2	2
0	7198	10.2	2
0	7199	10.2	2
0	7200	10.2	2
0	7201	10.2	2
0	7218	10.25	2
0	7219	10.25	2
0	7220	10.25	2
0	7221	10.25	2
0	7230	10.3	2
0	7231	10.3	2
0	7232	10.3	2
0	7233	10.3	2
0	7234	10.3	2
0	7235	10.3	2
0	7236	10.3	2
0	7237	10.3	2
0	7254	10.35	2
0	7255	10.35	2
0	7256	10.35	2
0	7257	10.35	2
0	7432	10.4	2
0	7433	10.4	2
0	7434	10.4	2
0	7435	10.4	2
0	7436	10.4	2
0	7437	10.4	2
0	7438	10.4	2
0	7439	10.4	2
0	7484	10.45	2
0	7485	10.45	2
0	7486	10.45	2
0	7487	10.45	2
0	7524	10.5	2
0	7525	10.5	2
0	7526	10.5	2
0	7527	10.5	2
0	7528	10.5	2
0	7529	10.5	2
0	7530	10.5	2
0	7531	10.5	2
0	7578	10.55	2
0	7579	10.55	2
0	7580	10.55	2
0	7581	10.55	2
0	7603	10.6	2
0	7604	10.6	2
0	7605	10.6	2
0	7606	10.6	2
0	7607	10.6	2
0	7608	10.6	2
0	7609	10.6	2
0	7610	10.6	2
0	7648	10.65	2
0	7649	10.65	2
0	7650	10.65	2
0	7651	10.65	2
0	7691	10.7	2
0	7692	10.7	2
0	7693	10.7	2
0	7694	10.7	2
0	7695	10.7	2
0	7696	10.7	2
0	7697	10.7	2
0	7698	10.7	2
0	7751	10.75	2
0	7752	10.75	2
0	7753	10.75	2
0	7754	10.75	2
0	7776	10.8	2
0	7777	10.8	2
0	7778	10.8	2
0	7779	10.8	2
0	7780	10.8	2
0	7781	10.8	2
0	7782	10.8	2
0	7783	10.8	2
0	7813	10.85	2
0	7814	10.85	2
0	7815	10.85	2
0	7816	10.85	2
0	7843	10.9	2
0	7844	10.9	2
0	7845	10.9	2
0	7846	10.9	2
0	7847	10.9	2
0	7848	10.9	2
0	7849	10.9	2
0	7850	10.9	2
0	7890	10.95	2
0	7891	10.95	2
0	7892	10.95	2
0	7893	10.95	2
0	7925	11	2
0	7926	11	2
0	7927	11	2
0	7928	11	2
0	7929	11	2
0	7930	11	2
0	7931	11	2
0	7932	11	2
0	7967	11.05	2
0	7968	11.05	2
0	7969	11.05	2
0	7970	11.05	2
0	8010	11.1	2
0	8011	11.1	2
0	8012	11.1	2
0	8013	11.1	2
0	8014	11.1	2
0	8015	11.1	2
0	8016	11.1	2
0	8017	11.1	2
0	8065	11.15	2
0	8066	11.15	2
0	8067	11.15	2
0	8068	11.15	2
0	8102	11.2	2
0	8103	11.2	2
0	8104	11.2	2
0	8105	11.2	2
0	8106	11.2	2
0	8107	11.2	2
0	8108	11.2	2
0	8109	11.2	2
0	8145	11.25	2
0	8146	11.25	2
0	8147	11.25	2
0	8148	11.25	2
0	8183	11.3	2
0	8184	11.3	2
0	8185	11.3	2
0	8186	11.3	2
0	8187	11.3	2
0	8188	11.3	2
0	8189	11.3	2
0	8190	11.3	2
0	8208	11.35	2
0	8209	11.35	2
0	8210	11.35	2
0	8211	11.35	2
0	8220	11.4	2
0	8221	11.4	2
0	8222	11.4	2
0	8223	11.4	2
0	8224	11.4	2
0	8225	11.4	2
0	8226	11.4	2
0	8227	11.4	2
0	8254	11.45	2
0	8255	11.45	2
0	8256	11.45	2
0	8257	11.45	2
0	8266	11.5	2
0	8267	11.5	2
0	8268	11.5	2
0	8269	11.5	2
0	8270	11.5	2
0	8271	11.5	2
0	8272	11.5	2
0	8273	11.5	2
0	8300	11.55	2
0	8301	11.55	2
0	8302	11.55	2
0	8303	11.55	2
0	8312	11.6	2
0	8313	11.6	2
0	8314	11.6	2
0	8315	11.6	2
0	8316	11.6	2
0	8317	11.6	2
0	8318	11.6	2
0	8319	11.6	2
0	8336	11.65	2
0	8337	11.65	2
0	8338	11.65	2
0	8339	11.65	2
0	8361	11.7	2
0	8362	11.7	2
0	8363	11.7	2
0	8364	11.7	2
0	8365	11.7	2
0	8366	11.7	2
0	8367	11.7	2
0	8368	11.7	2
0	8385	11.75	2
0	8386	11.75	2
0	8387	11.75	2
0	8388	11.75	2
0	8397	11.8	2
0	8398	11.8	2
0	8399	11.8	2
0	8400	11.8	2
0	8401	11.8	2
0	8402	11.8	2
0	8403	11.8	2
0	8404	11.8	2
0	8431	11.85	2
0	8432	11.85	2
0	8433	11.85	2
0	8434	11.85	2
0	8443	11.9	2
0	8444	11.9	2
0	8445	11.9	2
0	8446	11.9	2
0	8447	11.9	2
0	8448	11.9	2
0	8449	11.9	2
0	8450	11.9	2
0	8467	11.95	2
0	8468	11.95	2
0	8469	11.95	2
0	8470	11.95	2
0	8602	12	2
0	8603	12	2
0	8604	12	2
0	8605	12	2
0	8606	12	2
0	8607	12	2
0	8608	12	2
0	8609	12	2
0	8648	12.05	2
0	8649	12.05	2
0	8650	12.05	2
0	8651	12.05	2
0	8685	12.1	2
0	8686	12.1	2
0	8687	12.1	2
0	8688	12.1	2
0	8689	12.1	2
0	8690	12.1	2
0	8691	12.1	2
0	8692	12.1	2
0	8739	12.15	2
0	8740	12.15	2
0	8741	12.15	2
0	8742	12.15	2
0	8764	12.2	2
0	8765	12.2	2
0	8766	12.2	2
0	8767	12.2	2
0	8768	12.2	2
0	8769	12.2	2
0	8770	12.2	2
0	8771	12.2	2
0	8831	12.25	2
0	8832	12.25	2
0	8833	12.25	2
0	8834	12.25	2
0	8871	12.3	2
0	8872	12.3	2
0	8873	12.3	2
0	8874	12.3	2
0	8875	12.3	2
0	8876	12.3	2
0	8877	12.3	2
0	8878	12.3	2
0	8913	12.35	2
0	8914	12.35	2
0	8915	12.35	2
0	8916	12.35	2
0	8965	12.4	2
0	8966	12.4	2
0	8967	12.4	2
0	8968	12.4	2
0	8969	12.4	2
0	8970	12.4	2
0	8971	12.4	2
0	8972	12.4	2
0	9017	12.45	2
0	9018	12.45	2
0	9019	12.45	2
0	9020	12.45	2
0	9050	12.5	2
0	9051	12.5	2
0	9052	12.5	2
0	9053	12.5	2
0	9054	12.5	2
0	9055	12.5	2
0	9056	12.5	2
0	9057	12.5	2
0	9195	12.55	2
0	9196	12.55	2
0	9197	12.55	2
0	9198	12.55	2
0	9232	12.6	2
0	9233	12.6	2
0	9234	12.6	2
0	9235	12.6	2
0	9236	12.6	2
0	9237	12.6	2
0	9238	12.6	2
0	9239	12.6	2
0	9318	12.65	2
0	9319	12.65	2
0	9320	12.65	2
0	9321	12.65	2
0	9378	12.7	2
0	9379	12.7	2
0	9380	12.7	2
0	9381	12.7	2
0	9382	12.7	2
0	9383	12.7	2
0	9384	12.7	2
0	9385	12.7	2
0	9444	12.75	2
0	9445	12.75	2
0	9446	12.75	2
0	9447	12.75	2
0	9477	12.8	2
0	9478	12.8	2
0	9479	12.8	2
0	9480	12.8	2
0	9481	12.8	2
0	9482	12.8	2
0	9483	12.8	2
0	9484	12.8	2
0	9526	12.85	2
0	9527	12.85	2
0	9528	12.85	2
0	9529	12.85	2
0	9560	12.9	2
0	9561	12.9	2
0	9562	12.9	2
0	9563	12.9	2
0	9564	12.9	2
0	9565	12.9	2
0	9566	12.9	2
0	9567	12.9	2
0	9593	12.95	2
0	9594	12.95	2
0	9595	12.95	2
0	9596	12.95	2
0	9636	13	2
0	9637	13	2
0	9638	13	2
0	9639	13	2
0	9640	13	2
0	9641	13	2
0	9642	13	2
0	9643	13	2
0	9671	13.05	2
0	9672	13.05	2
0	9673	13.05	2
0	9674	13.05	2
0	9693	13.1	2
0	9694	13.1	2
0	9695	13.1	2
0	9696	13.1	2
0	9697	13.1	2
0	9698	13.1	2
0	9699	13.1	2
0	9700	13.1	2
0	9717	13.15	2
0	9718	13.15	2
0	9719	13.15	2
0	9720	13.15	2
0	9729	13.2	2
0	9730	13.2	2
0	9731	13.2	2
0	9732	13.2	2
0	9733	13.2	2
0	9734	13.2	2
0	9735	13.2	2
0	9736	13.2	2
0	9756	13.25	2
0	9757	13.25	2
0	9758	13.25	2
0	9759	13.25	2
0	9768	13.3	2
0	9769	13.3	2
0	9770	13.3	2
0	9771	13.3	2
0	9772	13.3	2
0	9773	13.3	2
0	9774	13.3	2
0	9775	13.3	2
0	9792	13.35	2
0	9793	13.35	2
0	9794	13.35	2
0	9795	13.35	2
0	9804	13.4	2
0	9805	13.4	2
0	9806	13.4	2
0	9807	13.4	2
0	9808	13.4	2
0	9809	13.4	2
0	9810	13.4	2
0	9811	13.4	2
0	9828	13.45	2
0	9829	13.45	2
0	9830	13.45	2
0	9831	13.45	2
0	9840	13.5	2
0	9841	13.5	2
0	9842	13.5	2
0	9843	13.5	2
0	9844	13.5	2
0	9845	13.5	2
0	9846	13.5	2
0	9847	13.5	2
0	9864	13.55	2
0	9865	13.55	2
0	9866	13.55	2
0	9867	13.55	2
0	9879	13.6	2
0	9880	13.6	2
0	9881	13.6	2
0	9882	13.6	2
0	9883	13.6	2
0	9884	13.6	2
0	9885	13.6	2
0	9886	13.6	2
0	9903	13.65	2
0	9904	13.65	2
0	9905	13.65	2
0	9906	13.65	2
0	9915	13.7	2
0	9916	13.7	2
0	9917	13.7	2
0	9918	13.7	2
0	9919	13.7	2
0	9920	13.7	2
0	9921	13.7	2
0	9922	13.7	2
0	9939	13.75	2
0	9940	13.75	2
0	9941	13.75	2
0	9942	13.75	2
0	9951	13.8	2
0	9952	13.8	2
0	9953	13.8	2
0	9954	13.8	2
0	9955	13.8	2
0	9956	13.8	2
0	9957	13.8	2
0	9958	13.8	2
0	9975	13.85	2
0	9976	13.85	2
0	9977	13.85	2
0	9978	13.85	2
0	9987	13.9	2
0	9988	13.9	2
0	9989	13.9	2
0	9990	13.9	2
0	9991	13.9	2
0	9992	13.9	2
0	9993	13.9	2
0	9994	13.9	2
0	10011	13.95	2
0	10012	13.95	2
0	10013	13.95	2
0	10014	13.95	2
0	10033	14	2
0	10034	14	2
0	10035	14	2
0	10036	14	2
0	10037	14	2
0	10038	14	2
0	10039	14	2
0	10040	14	2
0	10057	14.05	2
0	10058	14.05	2
0	10059	14.05	2
0	10060	14.05	2
0	10069	14.1	2
0	10070	14.1	2
0	10071	14.1	2
0	10072	14.1	2
0	10073	14.1	2
0	10074	14.1	2
0	10075	14.1	2
0	10076	14.1	2
0	10106	14.15	2
0	10107	14.15	2
0	10108	14.15	2
0	10109	14.15	2
0	10118	14.2	2
0	10119	14.2	2
0	10120	14.2	2
0	10121	14.2	2
0	10122	14.2	2
0	10123	14.2	2
0	10124	14.2	2
0	10125	14.2	2
0	10232	14.25	2
0	10233	14.25	2
0	10234	14.25	2
0	10235	14.25	2
0	10290	14.3	2
0	10291	14.3	2
0	10292	14.3	2
0	10293	14.3	2
0	10294	14.3	2
0	10295	14.3	2
0	10296	14.3	2
0	10297	14.3	2
0	10342	14.35	2
0	10343	14.35	2
0	10344	14.35	2
0	10345	14.35	2
0	10391	14.4	2
0	10392	14.4	2
0	10393	14.4	2
0	10394	14.4	2
0	10395	14.4	2
0	10396	14.4	2
0	10397	14.4	2
0	10398	14.4	2
0	10428	14.45	2
0	10429	14.45	2
0	10430	14.45	2
0	10431	14.45	2
0	10467	14.5	2
0	10468	14.5	2
0	10469	14.5	2
0	10470	14.5	2
0	10471	14.5	2
0	10472	14.5	2
0	10473	14.5	2
0	10474	14.5	2
0	10501	14.55	2
0	10502	14.55	2
0	10503	14.55	2
0	10504	14.55	2
0	10525	14.6	2
0	10526	14.6	2
0	10527	14.6	2
0	10528	14.6	2
0	10529	14.6	2
0	10530	14.6	2
0	10531	14.6	2
0	10532	14.6	2
0	10562	14.65	2
0	10563	14.65	2
0	10564	14.65	2
0	10565	14.65	2
0	10602	14.7	2
0	10603	14.7	2
0	10604	14.7	2
0	10605	14.7	2
0	10606	14.7	2
0	10607	14.7	2
0	10608	14.7	2
0	10609	14.7	2
0	10626	14.75	2
0	10627	14.75	2
0	10628	14.75	2
0	10629	14.75	2
0	10641	14.8	2
0	10642	14.8	2
0	10643	14.8	2
0	10644	14.8	2
0	10645	14.8	2
0	10646	14.8	2
0	10647	14.8	2
0	10648	14.8	2
0	10668	14.85	2
0	10669	14.85	2
0	10670	14.85	2
0	10671	14.85	2
0	10680	14.9	2
0	10681	14.9	2
0	10682	14.9	2
0	10683	14.9	2
0	10684	14.9	2
0	10685	14.9	2
0	10686	14.9	2
0	10687	14.9	2
0	10704	14.95	2
0	10705	14.95	2
0	10706	14.95	2
0	10707	14.95	2
0	10716	15	2
0	10717	15	2
0	10718	15	2
0	10719	15	2
0	10720	15	2
0	10721	15	2
0	10722	15	2
0	10723	15	2
0	10740	15.05	2
0	10741	15.05	2
0	10742	15.05	2
0	10743	15.05	2
0	10752	15.1	2
0	10753	15.1	2
0	10754	15.1	2
0	10755	15.1	2
0	10756	15.1	2
0	10757	15.1	2
0	10758	15.1	2
0	10759	15.1	2
0	10776	15.15	2
0	10777	15.15	2
0	10778	15.15	2
0	10779	15.15	2
0	10788	15.2	2
0	10789	15.2	2
0	10790	15.2	2
0	10791	15.2	2
0	10792	15.2	2
0	10793	15.2	2
0	10794	15.2	2
0	10795	15.2	2
0	10812	15.25	2
0	10813	15.25	2
0	10814	15.25	2
0	10815	15.25	2
0	10824	15.3	2
0	10825	15.3	2
0	10826	15.3	2
0	10827	15.3	2
0	10828	15.3	2
0	10829	15.3	2
0	10830	15.3	2
0	10831	15.3	2
0	10848	15.35	2
0	10849	15.35	2
0	10850	15.35	2
0	10851	15.35	2
0	10860	15.4	2
0	10861	15.4	2
0	10862	15.4	2
0	10863	15.4	2
0	10864	15.4	2
0	10865	15.4	2
0	10866	15.4	2
0	10867	15.4	2
0	10884	15.45	2
0	10885	15.45	2
0	10886	15.45	2
0	10887	15.45	2
0	10896	15.5	2
0	10897	15.5	2
0	10898	15.5	2
0	10899	15.5	2
0	10900	15.5	2
0	10901	15.5	2
0	10902	15.5	2
0	10903	15.5	2
0	10920	15.55	2
0	10921	15.55	2
0	10922	15.55	2
0	10923	15.55	2
0	10945	15.6	2
0	10946	15.6	2
0	10947	15.6	2
0	10948	15.6	2
0	10949	15.6	2
0	10950	15.6	2
0	10951	15.6	2
0	10952	15.6	2
0	10969	15.65	2
0	10970	15.65	2
0	10971	15.65	2
0	10972	15.65	2
0	10981	15.7	2
0	10982	15.7	2
0	10983	15.7	2
0	10984	15.7	2
0	10985	15.7	2
0	10986	15.7	2
0	10987	15.7	2
0	10988	15.7	2
0	11091	15.75	2
0	11092	15.75	2
0	11093	15.75	2
0	11094	15.75	2
0	11113	15.8	2
0	11114	15.8	2
0	11115	15.8	2
0	11116	15.8	2
0	11117	15.8	2
0	11118	15.8	2
0	11119	15.8	2
0	11120	15.8	2
0	11155	15.85	2
0	11156	15.85	2
0	11157	15.85	2
0	11158	15.85	2
0	11207	15.9	2
0	11208	15.9	2
0	11209	15.9	2
0	11210	15.9	2
0	11211	15.9	2
0	11212	15.9	2
0	11213	15.9	2
0	11214	15.9	2
0	11259	15.95	2
0	11260	15.95	2
0	11261	15.95	2
0	11262	15.95	2
0	11302	16	2
0	11303	16	2
0	11304	16	2
0	11305	16	2
0	11306	16	2
0	11307	16	2
0	11308	16	2
0	11309	16	2
0	11357	16.05	2
0	11358	16.05	2
0	11359	16.05	2
0	11360	16.05	2
0	11390	16.1	2
0	11391	16.1	2
0	11392	16.1	2
0	11393	16.1	2
0	11394	16.1	2
0	11395	16.1	2
0	11396	16.1	2
0	11397	16.1	2
0	11446	16.15	2
0	11447	16.15	2
0	11448	16.15	2
0	11449	16.15	2
0	11458	16.2	2
0	11459	16.2	2
0	11460	16.2	2
0	11461	16.2	2
0	11462	16.2	2
0	11463	16.2	2
0	11464	16.2	2
0	11465	16.2	2
0	11482	16.25	2
0	11483	16.25	2
0	11484	16.25	2
0	11485	16.25	2
0	11517	16.3	2
0	11518	16.3	2
0	11519	16.3	2
0	11520	16.3	2
0	11521	16.3	2
0	11522	16.3	2
0	11523	16.3	2
0	11524	16.3	2
0	11541	16.35	2
0	11542	16.35	2
0	11543	16.35	2
0	11544	16.35	2
0	11553	16.4	2
0	11554	16.4	2
0	11555	16.4	2
0	11556	16.4	2
0	11557	16.4	2
0	11558	16.4	2
0	11559	16.4	2
0	11560	16.4	2
0	11600	16.45	2
0	11601	16.45	2
0	11602	16.45	2
0	11603	16.45	2
0	11612	16.5	2
0	11613	16.5	2
0	11614	16.5	2
0	11615	16.5	2
0	11616	16.5	2
0	11617	16.5	2
0	11618	16.5	2
0	11619	16.5	2
0	11649	16.55	2
0	11650	16.55	2
0	11651	16.55	2
0	11652	16.55	2
0	11661	16.6	2
0	11662	16.6	2
0	11663	16.6	2
0	11664	16.6	2
0	11665	16.6	2
0	11666	16.6	2
0	11667	16.6	2
0	11668	16.6	2
0	11685	16.65	2
0	11686	16.65	2
0	11687	16.65	2
0	11688	16.65	2
0	11792	16.7	2
0	11793	16.7	2
0	11794	16.7	2
0	11795	16.7	2
0	11796	16.7	2
0	11797	16.7	2
0	11798	16.7	2
0	11799	16.7	2
0	11840	16.75	2
0	11841	16.75	2
0	11842	16.75	2
0	11843	16.75	2
0	11880	16.8	2
0	11881	16.8	2
0	11882	16.8	2
0	11883	16.8	2
0	11884	16.8	2
0	11885	16.8	2
0	11886	16.8	2
0	11887	16.8	2
0	11961	16.85	2
0	11962	16.85	2
0	11963	16.85	2
0	11964	16.85	2
0	11983	16.9	2
0	11984	16.9	2
0	11985	16.9	2
0	11986	16.9	2
0	11987	16.9	2
0	11988	16.9	2
0	11989	16.9	2
0	11990	16.9	2
0	12034	16.95	2
0	12035	16.95	2
0	12036	16.95	2
0	12037	16.95	2
0	12082	17	2
0	12083	17	2
0	12084	17	2
0	12085	17	2
0	12086	17	2
0	12087	17	2
0	12088	17	2
0	12089	17	2
0	12127	17.05	2
0	12128	17.05	2
0	12129	17.05	2
0	12130	17.05	2
0	12161	17.1	2
0	12162	17.1	2
0	12163	17.1	2
0	12164	17.1	2
0	12165	17.1	2
0	12166	17.1	2
0	12167	17.1	2
0	12168	17.1	2
0	12213	17.15	2
0	12214	17.15	2
0	12215	17.15	2
0	12216	17.15	2
0	12249	17.2	2
0	12250	17.2	2
0	12251	17.2	2
0	12252	17.2	2
0	12253	17.2	2
0	12254	17.2	2
0	12255	17.2	2
0	12256	17.2	2
0	12276	17.25	2
0	12277	17.25	2
0	12278	17.25	2
0	12279	17.25	2
0	12288	17.3	2
0	12289	17.3	2
0	12290	17.3	2
0	12291	17.3	2
0	12292	17.3	2
0	12293	17.3	2
0	12294	17.3	2
0	12295	17.3	2
0	12322	17.35	2
0	12323	17.35	2
0	12324	17.35	2
0	12325	17.35	2
0	12350	17.4	2
0	12351	17.4	2
0	12352	17.4	2
0	12353	17.4	2
0	12354	17.4	2
0	12355	17.4	2
0	12356	17.4	2
0	12357	17.4	2
0	12374	17.45	2
0	12375	17.45	2
0	12376	17.45	2
0	12377	17.45	2
0	12389	17.5	2
0	12390	17.5	2
0	12391	17.5	2
0	12392	17.5	2
0	12393	17.5	2
0	12394	17.5	2
0	12395	17.5	2
0	12396	17.5	2
0	12426	17.55	2
0	12427	17.55	2
0	12428	17.55	2
0	12429	17.55	2
0	12438	17.6	2
0	12439	17.6	2
0	12440	17.6	2
0	12441	17.6	2
0	12442	17.6	2
0	12443	17.6	2
0	12444	17.6	2
0	12445	17.6	2
0	12462	17.65	2
0	12463	17.65	2
0	12464	17.65	2
0	12465	17.65	2
0	12474	17.7	2
0	12475	17.7	2
0	12476	17.7	2
0	12477	17.7	2
0	12478	17.7	2
0	12479	17.7	2
0	12480	17.7	2
0	12481	17.7	2
0	12498	17.75	2
0	12499	17.75	2
0	12500	17.75	2
0	12501	17.75	2
0	12510	17.8	2
0	12511	17.8	2
0	12512	17.8	2
0	12513	17.8	2
0	12514	17.8	2
0	12515	17.8	2
0	12516	17.8	2
0	12517	17.8	2
0	12534	17.85	2
0	12535	17.85	2
0	12536	17.85	2
0	12537	17.85	2
0	12546	17.9	2
0	12547	17.9	2
0	12548	17.9	2
0	12549	17.9	2
0	12550	17.9	2
0	12551	17.9	2
0	12552	17.9	2
0	12553	17.9	2
0	12583	17.95	2
0	12584	17.95	2
0	12585	17.95	2
0	12586	17.95	2
0	12595	18	2
0	12596	18	2
0	12597	18	2
0	12598	18	2
0	12599	18	2
0	12600	18	2
0	12601	18	2
0	12602	18	2
0	12619	18.05	2
0	12620	18.05	2
0	12621	18.05	2
0	12622	18.05	2
0	12641	18.1	2
0	12642	18.1	2
0	12643	18.1	2
0	12644	18.1	2
0	12645	18.1	2
0	12646	18.1	2
0	12647	18.1	2
0	12648	18.1	2
0	12665	18.15	2
0	12666	18.15	2
0	12667	18.15	2
0	12668	18.15	2
0	12677	18.2	2
0	12678	18.2	2
0	12679	18.2	2
0	12680	18.2	2
0	12681	18.2	2
0	12682	18.2	2
0	12683	18.2	2
0	12684	18.2	2
0	12701	18.25	2
0	12702	18.25	2
0	12703	18.25	2
0	12704	18.25	2
0	12713	18.3	2
0	12714	18.3	2
0	12715	18.3	2
0	12716	18.3	2
0	12717	18.3	2
0	12718	18.3	2
0	12719	18.3	2
0	12720	18.3	2
0	12737	18.35	2
0	12738	18.35	2
0	12739	18.35	2
0	12740	18.35	2
0	12749	18.4	2
0	12750	18.4	2
0	12751	18.4	2
0	12752	18.4	2
0	12753	18.4	2
0	12754	18.4	2
0	12755	18.4	2
0	12756	18.4	2
0	12773	18.45	2
0	12774	18.45	2
0	12775	18.45	2
0	12776	18.45	2
0	12788	18.5	2
0	12789	18.5	2
0	12790	18.5	2
0	12791	18.5	2
0	12792	18.5	2
0	12793	18.5	2
0	12794	18.5	2
0	12795	18.5	2
0	12812	18.55	2
0	12813	18.55	2
0	12814	18.55	2
0	12815	18.55	2
0	12837	18.6	2
0	12838	18.6	2
0	12839	18.6	2
0	12840	18.6	2
0	12841	18.6	2
0	12842	18.6	2
0	12843	18.6	2
0	12844	18.6	2
0	12861	18.65	2
0	12862	18.65	2
0	12863	18.65	2
0	12864	18.65	2
0	12876	18.7	2
0	12877	18.7	2
0	12878	18.7	2
0	12879	18.7	2
0	12880	18.7	2
0	12881	18.7	2
0	12882	18.7	2
0	12883	18.7	2
0	12910	18.75	2
0	12911	18.75	2
0	12912	18.75	2
0	12913	18.75	2
0	12922	18.8	2
0	12923	18.8	2
0	12924	18.8	2
0	12925	18.8	2
0	12926	18.8	2
0	12927	18.8	2
0	12928	18.8	2
0	12929	18.8	2
0	13014	18.85	2
0	13015	18.85	2
0	13016	18.85	2
0	13017	18.85	2
0	13045	18.9	2
0	13046	18.9	2
0	13047	18.9	2
0	13048	18.9	2
0	13049	18.9	2
0	13050	18.9	2
0	13051	18.9	2
0	13052	18.9	2
0	13084	18.95	2
0	13085	18.95	2
0	13086	18.95	2
0	13087	18.95	2
0	13118	19	2
0	13119	19	2
0	13120	19	2
0	13121	19	2
0	13122	19	2
0	13123	19	2
0	13124	19	2
0	13125	19	2
0	13155	19.05	2
0	13156	19.05	2
0	13157	19.05	2
0	13158	19.05	2
0	13190	19.1	2
0	13191	19.1	2
0	13192	19.1	2
0	13193	19.1	2
0	13194	19.1	2
0	13195	19.1	2
0	13196	19.1	2
0	13197	19.1	2
0	13245	19.15	2
0	13246	19.15	2
0	13247	19.15	2
0	13248	19.15	2
0	13257	19.2	2
0	13258	19.2	2
0	13259	19.2	2
0	13260	19.2	2
0	13261	19.2	2
0	13262	19.2	2
0	13263	19.2	2
0	13264	19.2	2
0	13294	19.25	2
0	13295	19.25	2
0	13296	19.25	2
0	13297	19.25	2
0	13306	19.3	2
0	13307	19.3	2
0	13308	19.3	2
0	13309	19.3	2
0	13310	19.3	2
0	13311	19.3	2
0	13312	19.3	2
0	13313	19.3	2
0	13330	19.35	2
0	13331	19.35	2
0	13332	19.35	2
0	13333	19.35	2
0	13352	19.4	2
0	13353	19.4	2
0	13354	19.4	2
0	13355	19.4	2
0	13356	19.4	2
0	13357	19.4	2
0	13358	19.4	2
0	13359	19.4	2
0	13376	19.45	2
0	13377	19.45	2
0	13378	19.45	2
0	13379	19.45	2
0	13398	19.5	2
0	13399	19.5	2
0	13400	19.5	2
0	13401	19.5	2
0	13402	19.5	2
0	13403	19.5	2
0	13404	19.5	2
0	13405	19.5	2
0	13422	19.55	2
0	13423	19.55	2
0	13424	19.55	2
0	13425	19.55	2
0	13434	19.6	2
0	13435	19.6	2
0	13436	19.6	2
0	13437	19.6	2
0	13438	19.6	2
0	13439	19.6	2
0	13440	19.6	2
0	13441	19.6	2
0	13461	19.65	2
0	13462	19.65	2
0	13463	19.65	2
0	13464	19.65	2
0	13486	19.7	2
0	13487	19.7	2
0	13488	19.7	2
0	13489	19.7	2
0	13490	19.7	2
0	13491	19.7	2
0	13492	19.7	2
0	13493	19.7	2
0	13510	19.75	2
0	13511	19.75	2
0	13512	19.75	2
0	13513	19.75	2
0	13535	19.8	2
0	13536	19.8	2
0	13537	19.8	2
0	13538	19.8	2
0	13539	19.8	2
0	13540	19.8	2
0	13541	19.8	2
0	13542	19.8	2
0	13569	19.85	2
0	13570	19.85	2
0	13571	19.85	2
0	13572	19.85	2
0	13581	19.9	2
0	13582	19.9	2
0	13583	19.9	2
0	13584	19.9	2
0	13585	19.9	2
0	13586	19.9	2
0	13587	19.9	2
0	13588	19.9	2
0	13653	19.95	2
0	13654	19.95	2
0	13655	19.95	2
0	13656	19.95	2
0	13692	20	2
0	13693	20	2
0	13694	20	2
0	13695	20	2
0	13696	20	2
0	13697	20	2
0	13698	20	2
0	13699	20	2
0	13726	20.05	2
0	13727	20.05	2
0	13728	20.05	2
0	13729	20.05	2
0	13753	20.1	2
0	13754	20.1	2
0	13755	20.1	2
0	13756	20.1	2
0	13757	20.1	2
0	13758	20.1	2
0	13759	20.1	2
0	13760	20.1	2
0	13777	20.15	2
0	13778	20.15	2
0	13779	20.15	2
0	13780	20.15	2
0	13789	20.2	2
0	13790	20.2	2
0	13791	20.2	2
0	13792	20.2	2
0	13793	20.2	2
0	13794	20.2	2
0	13795	20.2	2
0	13796	20.2	2
0	13823	20.25	2
0	13824	20.25	2
0	13825	20.25	2
0	13826	20.25	2
0	13835	20.3	2
0	13836	20.3	2
0	13837	20.3	2
0	13838	20.3	2
0	13839	20.3	2
0	13840	20.3	2
0	13841	20.3	2
0	13842	20.3	2
0	13928	20.35	2
0	13929	20.35	2
0	13930	20.35	2
0	13931	20.35	2
0	13957	20.4	2
0	13958	20.4	2
0	13959	20.4	2
0	13960	20.4	2
0	13961	20.4	2
0	13962	20.4	2
0	13963	20.4	2
0	13964	20.4	2
0	14012	20.45	2
0	14013	20.45	2
0	14014	20.45	2
0	14015	20.45	2
0	14058	20.5	2
0	14059	20.5	2
0	14060	20.5	2
0	14061	20.5	2
0	14062	20.5	2
0	14063	20.5	2
0	14064	20.5	2
0	14065	20.5	2
0	14104	20.55	2
0	14105	20.55	2
0	14106	20.55	2
0	14107	20.55	2
0	14155	20.6	2
0	14156	20.6	2
0	14157	20.6	2
0	14158	20.6	2
0	14159	20.6	2
0	14160	20.6	2
0	14161	20.6	2
0	14162	20.6	2
0	14191	20.65	2
0	14192	20.65	2
0	14193	20.65	2
0	14194	20.65	2
0	14203	20.7	2
0	14204	20.7	2
0	14205	20.7	2
0	14206	20.7	2
0	14207	20.7	2
0	14208	20.7	2
0	14209	20.7	2
0	14210	20.7	2
0	14227	20.75	2
0	14228	20.75	2
0	14229	20.75	2
0	14230	20.75	2
0	14249	20.8	2
0	14250	20.8	2
0	14251	20.8	2
0	14252	20.8	2
0	14253	20.8	2
0	14254	20.8	2
0	14255	20.8	2
0	14256	20.8	2
0	14273	20.85	2
0	14274	20.85	2
0	14275	20.85	2
0	14276	20.85	2
0	14285	20.9	2
0	14286	20.9	2
0	14287	20.9	2
0	14288	20.9	2
0	14289	20.9	2
0	14290	20.9	2
0	14291	20.9	2
0	14292	20.9	2
0	14322	20.95	2
0	14323	20.95	2
0	14324	20.95	2
0	14325	20.95	2
0	14334	21	2
0	14335	21	2
0	14336	21	2
0	14337	21	2
0	14338	21	2
0	14339	21	2
0	14340	21	2
0	14341	21	2
0	14358	21.05	2
0	14359	21.05	2
0	14360	21.05	2
0	14361	21.05	2
0	14429	21.1	2
0	14430	21.1	2
0	14431	21.1	2
0	14432	21.1	2
0	14433	21.1	2
0	14434	21.1	2
0	14435	21.1	2
0	14436	21.1	2
0	14483	21.15	2
0	14484	21.15	2
0	14485	21.15	2
0	14486	21.15	2
0	14529	21.2	2
0	14530	21.2	2
0	14531	21.2	2
0	14532	21.2	2
0	14533	21.2	2
0	14534	21.2	2
0	14535	21.2	2
0	14536	21.2	2
0	14593	21.25	2
0	14594	21.25	2
0	14595	21.25	2
0	14596	21.25	2
0	14624	21.3	2
0	14625	21.3	2
0	14626	21.3	2
0	14627	21.3	2
0	14628	21.3	2
0	14629	21.3	2
0	14630	21.3	2
0	14631	21.3	2
0	14659	21.35	2
0	14660	21.35	2
0	14661	21.35	2
0	14662	21.35	2
0	14671	21.4	2
0	14672	21.4	2
0	14673	21.4	2
0	14674	21.4	2
0	14675	21.4	2
0	14676	21.4	2
0	14677	21.4	2
0	14678	21.4	2
0	14695	21.45	2
0	14696	21.45	2
0	14697	21.45	2
0	14698	21.45	2
0	14707	21.5	2
0	14708	21.5	2
0	14709	21.5	2
0	14710	21.5	2
0	14711	21.5	2
0	14712	21.5	2
0	14713	21.5	2
0	14714	21.5	2
0	14744	21.55	2
0	14745	21.55	2
0	14746	21.55	2
0	14747	21.55	2
0	14756	21.6	2
0	14757	21.6	2
0	14758	21.6	2
0	14759	21.6	2
0	14760	21.6	2
0	14761	21.6	2
0	14762	21.6	2
0	14763	21.6	2
0	14780	21.65	2
0	14781	21.65	2
0	14782	21.65	2
0	14783	21.65	2
0	14802	21.7	2
0	14803	21.7	2
0	14804	21.7	2
0	14805	21.7	2
0	14806	21.7	2
0	14807	21.7	2
0	14808	21.7	2
0	14809	21.7	2
0	14826	21.75	2
0	14827	21.75	2
0	14828	21.75	2
0	14829	21.75	2
0	14838	21.8	2
0	14839	21.8	2
0	14840	21.8	2
0	14841	21.8	2
0	14842	21.8	2
0	14843	21.8	2
0	14844	21.8	2
0	14845	21.8	2
0	14862	21.85	2
0	14863	21.85	2
0	14864	21.85	2
0	14865	21.85	2
0	14874	21.9	2
0	14875	21.9	2
0	14876	21.9	2
0	14877	21.9	2
0	14878	21.9	2
0	14879	21.9	2
0	14880	21.9	2
0	14881	21.9	2
0	14948	21.95	2
0	14949	21.95	2
0	14950	21.95	2
0	14951	21.95	2
0	14984	22	2
0	14985	22	2
0	14986	22	2
0	14987	22	2
0	14988	22	2
0	14989	22	2
0	14990	22	2
0	14991	22	2
0	15033	22.05	2
0	15034	22.05	2
0	15035	22.05	2
0	15036	22.05	2
0	15139	22.1	2
0	15140	22.1	2
0	15141	22.1	2
0	15142	22.1	2
0	15143	22.1	2
0	15144	22.1	2
0	15145	22.1	2
0	15146	22.1	2
0	15172	22.15	2
0	15173	22.15	2
0	15174	22.15	2
0	15175	22.15	2
0	15212	22.2	2
0	15213	22.2	2
0	15214	22.2	2
0	15215	22.2	2
0	15216	22.2	2
0	15217	22.2	2
0	15218	22.2	2
0	15219	22.2	2
0	15258	22.25	2
0	15259	22.25	2
0	15260	22.25	2
0	15261	22.25	2
0	15291	22.3	2
0	15292	22.3	2
0	15293	22.3	2
0	15294	22.3	2
0	15295	22.3	2
0	15296	22.3	2
0	15297	22.3	2
0	15298	22.3	2
0	15325	22.35	2
0	15326	22.35	2
0	15327	22.35	2
0	15328	22.35	2
0	15364	22.4	2
0	15365	22.4	2
0	15366	22.4	2
0	15367	22.4	2
0	15368	22.4	2
0	15369	22.4	2
0	15370	22.4	2
0	15371	22.4	2
0	15393	22.45	2
0	15394	22.45	2
0	15395	22.45	2
0	15396	22.45	2
0	15408	22.5	2
0	15409	22.5	2
0	15410	22.5	2
0	15411	22.5	2
0	15412	22.5	2
0	15413	22.5	2
0	15414	22.5	2
0	15415	22.5	2
0	15445	22.55	2
0	15446	22.55	2
0	15447	22.55	2
0	15448	22.55	2
0	15457	22.6	2
0	15458	22.6	2
0	15459	22.6	2
0	15460	22.6	2
0	15461	22.6	2
0	15462	22.6	2
0	15463	22.6	2
0	15464	22.6	2
0	15481	22.65	2
0	15482	22.65	2
0	15483	22.65	2
0	15484	22.65	2
0	15546	22.7	2
0	15547	22.7	2
0	15548	22.7	2
0	15549	22.7	2
0	15550	22.7	2
0	15551	22.7	2
0	15552	22.7	2
0	15553	22.7	2
0	15598	22.75	2
0	15599	22.75	2
0	15600	22.75	2
0	15601	22.75	2
0	15637	22.8	2
0	15638	22.8	2
0	15639	22.8	2
0	15640	22.8	2
0	15641	22.8	2
0	15642	22.8	2
0	15643	22.8	2
0	15644	22.8	2
0	15679	22.85	2
0	15680	22.85	2
0	15681	22.85	2
0	15682	22.85	2
0	15691	22.9	2
0	15692	22.9	2
0	15693	22.9	2
0	15694	22.9	2
0	15695	22.9	2
0	15696	22.9	2
0	15697	22.9	2
0	15698	22.9	2
0	15715	22.95	2
0	15716	22.95	2
0	15717	22.95	2
0	15718	22.95	2
0	15727	23	2
0	15728	23	2
0	15729	23	2
0	15730	23	2
0	15731	23	2
0	15732	23	2
0	15733	23	2
0	15734	23	2
0	15751	23.05	2
0	15752	23.05	2
0	15753	23.05	2
0	15754	23.05	2
0	15776	23.1	2
0	15777	23.1	2
0	15778	23.1	2
0	15779	23.1	2
0	15780	23.1	2
0	15781	23.1	2
0	15782	23.1	2
0	15783	23.1	2
0	15800	23.15	2
0	15801	23.15	2
0	15802	23.15	2
0	15803	23.15	2
0	15812	23.2	2
0	15813	23.2	2
0	15814	23.2	2
0	15815	23.2	2
0	15816	23.2	2
0	15817	23.2	2
0	15818	23.2	2
0	15819	23.2	2
0	15872	23.25	2
0	15873	23.25	2
0	15874	23.25	2
0	15875	23.25	2
0	15909	23.3	2
0	15910	23.3	2
0	15911	23.3	2
0	15912	23.3	2
0	15913	23.3	2
0	15914	23.3	2
0	15915	23.3	2
0	15916	23.3	2
0	15933	23.35	2
0	15934	23.35	2
0	15935	23.35	2
0	15936	23.35	2
0	15948	23.4	2
0	15949	23.4	2
0	15950	23.4	2
0	15951	23.4	2
0	15952	23.4	2
0	15953	23.4	2
0	15954	23.4	2
0	15955	23.4	2
0	15972	23.45	2
0	15973	23.45	2
0	15974	23.45	2
0	15975	23.45	2
0	15984	23.5	2
0	15985	23.5	2
0	15986	23.5	2
0	15987	23.5	2
0	15988	23.5	2
0	15989	23.5	2
0	15990	23.5	2
0	15991	23.5	2
0	16008	23.55	2
0	16009	23.55	2
0	16010	23.55	2
0	16011	23.55	2
0	16020	23.6	2
0	16021	23.6	2
0	16022	23.6	2
0	16023	23.6	2
0	16024	23.6	2
0	16025	23.6	2
0	16026	23.6	2
0	16027	23.6	2
0	16044	23.65	2
0	16045	23.65	2
0	16046	23.65	2
0	16047	23.65	2
0	16082	23.7	2
0	16083	23.7	2
0	16084	23.7	2
0	16085	23.7	2
0	16086	23.7	2
0	16087	23.7	2
0	16088	23.7	2
0	16089	23.7	2
0	16106	23.75	2
0	16107	23.75	2
0	16108	23.75	2
0	16109	23.75	2
0	16118	23.8	2
0	16119	23.8	2
0	16120	23.8	2
0	16121	23.8	2
0	16122	23.8	2
0	16123	23.8	2
0	16124	23.8	2
0	16125	23.8	2
0	16168	23.85	2
0	16169	23.85	2
0	16170	23.85	2
0	16171	23.85	2
0	16191	23.9	2
0	16192	23.9	2
0	16193	23.9	2
0	16194	23.9	2
0	16195	23.9	2
0	16196	23.9	2
0	16197	23.9	2
0	16198	23.9	2
0	16215	23.95	2
0	16216	23.95	2
0	16217	23.95	2
0	16218	23.95	2
0	16227	24	2
0	16228	24	2
0	16229	24	2
0	16230	24	2
0	16231	24	2
0	16232	24	2
0	16233	24	2
0	16234	24	2
0	16251	24.05	2
0	16252	24.05	2
0	16253	24.05	2
0	16254	24.05	2
0	16263	24.1	2
0	16264	24.1	2
0	16265	24.1	2
0	16266	24.1	2
0	16267	24.1	2
0	16268	24.1	2
0	16269	24.1	2
0	16270	24.1	2
0	16287	24.15	2
0	16288	24.15	2
0	16289	24.15	2
0	16290	24.15	2
0	16299	24.2	2
0	16300	24.2	2
0	16301	24.2	2
0	16302	24.2	2
0	16303	24.2	2
0	16304	24.2	2
0	16305	24.2	2
0	16306	24.2	2
0	16326	24.25	2
0	16327	24.25	2
0	16328	24.25	2
0	16329	24.25	2
0	16338	24.3	2
0	16339	24.3	2
0	16340	24.3	2
0	16341	24.3	2
0	16342	24.3	2
0	16343	24.3	2
0	16344	24.3	2
0	16345	24.3	2
0	16362	24.35	2
0	16363	24.35	2
0	16364	24.35	2
0	16365	24.35	2
0	16374	24.4	2
0	16375	24.4	2
0	16376	24.4	2
0	16377	24.4	2
0	16378	24.4	2
0	16379	24.4	2
0	16380	24.4	2
0	16381	24.4	2
0	16398	24.45	2
0	16399	24.45	2
0	16400	24.45	2
0	16401	24.45	2
0	16410	24.5	2
0	16411	24.5	2
0	16412	24.5	2
0	16413	24.5	2
0	16414	24.5	2
0	16415	24.5	2
0	16416	24.5	2
0	16417	24.5	2
0	16434	24.55	2
0	16435	24.55	2
0	16436	24.55	2
0	16437	24.55	2
0	16446	24.6	2
0	16447	24.6	2
0	16448	24.6	2
0	16449	24.6	2
0	16450	24.6	2
0	16451	24.6	2
0	16452	24.6	2
0	16453	24.6	2
0	16470	24.65	2
0	16471	24.65	2
0	16472	24.65	2
0	16473	24.65	2
0	16485	24.7	2
0	16486	24.7	2
0	16487	24.7	2
0	16488	24.7	2
0	16489	24.7	2
0	16490	24.7	2
0	16491	24.7	2
0	16492	24.7	2
0	16509	24.75	2
0	16510	24.75	2
0	16511	24.75	2
0	16512	24.75	2
0	16521	24.8	2
0	16522	24.8	2
0	16523	24.8	2
0	16524	24.8	2
0	16525	24.8	2
0	16526	24.8	2
0	16527	24.8	2
0	16528	24.8	2
0	16568	24.85	2
0	16569	24.85	2
0	16570	24.85	2
0	16571	24.85	2
0	16580	24.9	2
0	16581	24.9	2
0	16582	24.9	2
0	16583	24.9	2
0	16584	24.9	2
0	16585	24.9	2
0	16586	24.9	2
0	16587	24.9	2
0	16604	24.95	2
0	16605	24.95	2
0	16606	24.95	2
0	16607	24.95	2
0	16619	25	2
0	16620	25	2
0	16621	25	2
0	16622	25	2
0	16623	25	2
0	16624	25	2
0	16625	25	2
0	16626	25	2
0	16643	25.05	2
0	16644	25.05	2
0	16645	25.05	2
0	16646	25.05	2
0	16655	25.1	2
0	16656	25.1	2
0	16657	25.1	2
0	16658	25.1	2
0	16659	25.1	2
0	16660	25.1	2
0	16661	25.1	2
0	16662	25.1	2
0	16679	25.15	2
0	16680	25.15	2
0	16681	25.15	2
0	16682	25.15	2
0	16691	25.2	2
0	16692	25.2	2
0	16693	25.2	2
0	16694	25.2	2
0	16695	25.2	2
0	16696	25.2	2
0	16697	25.2	2
0	16698	25.2	2
0	16725	25.25	2
0	16726	25.25	2
0	16727	25.25	2
0	16728	25.25	2
0	16747	25.3	2
0	16748	25.3	2
0	16749	25.3	2
0	16750	25.3	2
0	16751	25.3	2
0	16752	25.3	2
0	16753	25.3	2
0	16754	25.3	2
0	16771	25.35	2
0	16772	25.35	2
0	16773	25.35	2
0	16774	25.35	2
0	16793	25.4	2
0	16794	25.4	2
0	16795	25.4	2
0	16796	25.4	2
0	16797	25.4	2
0	16798	25.4	2
0	16799	25.4	2
0	16800	25.4	2
0	16859	25.45	2
0	16860	25.45	2
0	16861	25.45	2
0	16862	25.45	2
0	16872	25.5	2
0	16873	25.5	2
0	16874	25.5	2
0	16875	25.5	2
0	16876	25.5	2
0	16877	25.5	2
0	16878	25.5	2
0	16879	25.5	2
0	16896	25.55	2
0	16897	25.55	2
0	16898	25.55	2
0	16899	25.55	2
0	16921	25.6	2
0	16922	25.6	2
0	16923	25.6	2
0	16924	25.6	2
0	16925	25.6	2
0	16926	25.6	2
0	16927	25.6	2
0	16928	25.6	2
0	16945	25.65	2
0	16946	25.65	2
0	16947	25.65	2
0	16948	25.65	2
0	16957	25.7	2
0	16958	25.7	2
0	16959	25.7	2
0	16960	25.7	2
0	16961	25.7	2
0	16962	25.7	2
0	16963	25.7	2
0	16964	25.7	2
0	16981	25.75	2
0	16982	25.75	2
0	16983	25.75	2
0	16984	25.75	2
0	17006	25.8	2
0	17007	25.8	2
0	17008	25.8	2
0	17009	25.8	2
0	17010	25.8	2
0	17011	25.8	2
0	17012	25.8	2
0	17013	25.8	2
0	17030	25.85	2
0	17031	25.85	2
0	17032	25.85	2
0	17033	25.85	2
0	17042	25.9	2
0	17043	25.9	2
0	17044	25.9	2
0	17045	25.9	2
0	17046	25.9	2
0	17047	25.9	2
0	17048	25.9	2
0	17049	25.9	2
0	17079	25.95	2
0	17080	25.95	2
0	17081	25.95	2
0	17082	25.95	2
0	17116	26	2
0	17117	26	2
0	17118	26	2
0	17119	26	2
0	17120	26	2
0	17121	26	2
0	17122	26	2
0	17123	26	2
0	17140	26.05	2
0	17141	26.05	2
0	17142	26.05	2
0	17143	26.05	2
0	17152	26.1	2
0	17153	26.1	2
0	17154	26.1	2
0	17155	26.1	2
0	17156	26.1	2
0	17157	26.1	2
0	17158	26.1	2
0	17159	26.1	2
0	17179	26.15	2
0	17180	26.15	2
0	17181	26.15	2
0	17182	26.15	2
0	17191	26.2	2
0	17192	26.2	2
0	17193	26.2	2
0	17194	26.2	2
0	17195	26.2	2
0	17196	26.2	2
0	17197	26.2	2
0	17198	26.2	2
0	17215	26.25	2
0	17216	26.25	2
0	17217	26.25	2
0	17218	26.25	2
0	17227	26.3	2
0	17228	26.3	2
0	17229	26.3	2
0	17230	26.3	2
0	17231	26.3	2
0	17232	26.3	2
0	17233	26.3	2
0	17234	26.3	2
0	17264	26.35	2
0	17265	26.35	2
0	17266	26.35	2
0	17267	26.35	2
0	17276	26.4	2
0	17277	26.4	2
0	17278	26.4	2
0	17279	26.4	2
0	17280	26.4	2
0	17281	26.4	2
0	17282	26.4	2
0	17283	26.4	2
0	17303	26.45	2
0	17304	26.45	2
0	17305	26.45	2
0	17306	26.45	2
0	17318	26.5	2
0	17319	26.5	2
0	17320	26.5	2
0	17321	26.5	2
0	17322	26.5	2
0	17323	26.5	2
0	17324	26.5	2
0	17325	26.5	2
0	17342	26.55	2
0	17343	26.55	2
0	17344	26.55	2
0	17345	26.55	2
0	17367	26.6	2
0	17368	26.6	2
0	17369	26.6	2
0	17370	26.6	2
0	17371	26.6	2
0	17372	26.6	2
0	17373	26.6	2
0	17374	26.6	2
0	17391	26.65	2
0	17392	26.65	2
0	17393	26.65	2
0	17394	26.65	2
0	17403	26.7	2
0	17404	26.7	2
0	17405	26.7	2
0	17406	26.7	2
0	17407	26.7	2
0	17408	26.7	2
0	17409	26.7	2
0	17410	26.7	2
0	17427	26.75	2
0	17428	26.75	2
0	17429	26.75	2
0	17430	26.75	2
0	17439	26.8	2
0	17440	26.8	2
0	17441	26.8	2
0	17442	26.8	2
0	17443	26.8	2
0	17444	26.8	2
0	17445	26.8	2
0	17446	26.8	2
0	17463	26.85	2
0	17464	26.85	2
0	17465	26.85	2
0	17466	26.85	2
0	17478	26.9	2
0	17479	26.9	2
0	17480	26.9	2
0	17481	26.9	2
0	17482	26.9	2
0	17483	26.9	2
0	17484	26.9	2
0	17485	26.9	2
0	17502	26.95	2
0	17503	26.95	2
0	17504	26.95	2
0	17505	26.95	2
0	17553	27	2
0	17554	27	2
0	17555	27	2
0	17556	27	2
0	17557	27	2
0	17558	27	2
0	17559	27	2
0	17560	27	2
0	17597	27.05	2
0	17598	27.05	2
0	17599	27.05	2
0	17600	27.05	2
0	17609	27.1	2
0	17610	27.1	2
0	17611	27.1	2
0	17612	27.1	2
0	17613	27.1	2
0	17614	27.1	2
0	17615	27.1	2
0	17616	27.1	2
0	17636	27.15	2
0	17637	27.15	2
0	17638	27.15	2
0	17639	27.15	2
0	17648	27.2	2
0	17649	27.2	2
0	17650	27.2	2
0	17651	27.2	2
0	17652	27.2	2
0	17653	27.2	2
0	17654	27.2	2
0	17655	27.2	2
0	17672	27.25	2
0	17673	27.25	2
0	17674	27.25	2
0	17675	27.25	2
0	17684	27.3	2
0	17685	27.3	2
0	17686	27.3	2
0	17687	27.3	2
0	17688	27.3	2
0	17689	27.3	2
0	17690	27.3	2
0	17691	27.3	2
0	17708	27.35	2
0	17709	27.35	2
0	17710	27.35	2
0	17711	27.35	2
0	17720	27.4	2
0	17721	27.4	2
0	17722	27.4	2
0	17723	27.4	2
0	17724	27.4	2
0	17725	27.4	2
0	17726	27.4	2
0	17727	27.4	2
0	17754	27.45	2
0	17755	27.45	2
0	17756	27.45	2
0	17757	27.45	2
0	17766	27.5	2
0	17767	27.5	2
0	17768	27.5	2
0	17769	27.5	2
0	17770	27.5	2
0	17771	27.5	2
0	17772	27.5	2
0	17773	27.5	2
0	17790	27.55	2
0	17791	27.55	2
0	17792	27.55	2
0	17793	27.55	2
0	17818	27.6	2
0	17819	27.6	2
0	17820	27.6	2
0	17821	27.6	2
0	17822	27.6	2
0	17823	27.6	2
0	17824	27.6	2
0	17825	27.6	2
0	17842	27.65	2
0	17843	27.65	2
0	17844	27.65	2
0	17845	27.65	2
0	17854	27.7	2
0	17855	27.7	2
0	17856	27.7	2
0	17857	27.7	2
0	17858	27.7	2
0	17859	27.7	2
0	17860	27.7	2
0	17861	27.7	2
0	17888	27.75	2
0	17889	27.75	2
0	17890	27.75	2
0	17891	27.75	2
0	17900	27.8	2
0	17901	27.8	2
0	17902	27.8	2
0	17903	27.8	2
0	17904	27.8	2
0	17905	27.8	2
0	17906	27.8	2
0	17907	27.8	2
0	17924	27.85	2
0	17925	27.85	2
0	17926	27.85	2
0	17927	27.85	2
0	17936	27.9	2
0	17937	27.9	2
0	17938	27.9	2
0	17939	27.9	2
0	17940	27.9	2
0	17941	27.9	2
0	17942	27.9	2
0	17943	27.9	2
0	17963	27.95	2
0	17964	27.95	2
0	17965	27.95	2
0	17966	27.95	2
0	17985	28	2
0	17986	28	2
0	17987	28	2
0	17988	28	2
0	17989	28	2
0	17990	28	2
0	17991	28	2
0	17992	28	2
0	18009	28.05	2
0	18010	28.05	2
0	18011	28.05	2
0	18012	28.05	2
0	18024	28.1	2
0	18025	28.1	2
0	18026	28.1	2
0	18027	28.1	2
0	18028	28.1	2
0	18029	28.1	2
0	18030	28.1	2
0	18031	28.1	2
0	18064	28.15	2
0	18065	28.15	2
0	18066	28.15	2
0	18067	28.15	2
0	18076	28.2	2
0	18077	28.2	2
0	18078	28.2	2
0	18079	28.2	2
0	18080	28.2	2
0	18081	28.2	2
0	18082	28.2	2
0	18083	28.2	2
0	18100	28.25	2
0	18101	28.25	2
0	18102	28.25	2
0	18103	28.25	2
0	18112	28.3	2
0	18113	28.3	2
0	18114	28.3	2
0	18115	28.3	2
0	18116	28.3	2
0	18117	28.3	2
0	18118	28.3	2
0	18119	28.3	2
0	18136	28.35	2
0	18137	28.35	2
0	18138	28.35	2
0	18139	28.35	2
0	18148	28.4	2
0	18149	28.4	2
0	18150	28.4	2
0	18151	28.4	2
0	18152	28.4	2
0	18153	28.4	2
0	18154	28.4	2
0	18155	28.4	2
0	18172	28.45	2
0	18173	28.45	2
0	18174	28.45	2
0	18175	28.45	2
0	18184	28.5	2
0	18185	28.5	2
0	18186	28.5	2
0	18187	28.5	2
0	18188	28.5	2
0	18189	28.5	2
0	18190	28.5	2
0	18191	28.5	2
0	18218	28.55	2
0	18219	28.55	2
0	18220	28.55	2
0	18221	28.55	2
0	18233	28.6	2
0	18234	28.6	2
0	18235	28.6	2
0	18236	28.6	2
0	18237	28.6	2
0	18238	28.6	2
0	18239	28.6	2
0	18240	28.6	2
0	18257	28.65	2
0	18258	28.65	2
0	18259	28.65	2
0	18260	28.65	2
0	18282	28.7	2
0	18283	28.7	2
0	18284	28.7	2
0	18285	28.7	2
0	18286	28.7	2
0	18287	28.7	2
0	18288	28.7	2
0	18289	28.7	2
0	18309	28.75	2
0	18310	28.75	2
0	18311	28.75	2
0	18312	28.75	2
0	18321	28.8	2
0	18322	28.8	2
0	18323	28.8	2
0	18324	28.8	2
0	18325	28.8	2
0	18326	28.8	2
0	18327	28.8	2
0	18328	28.8	2
0	18345	28.85	2
0	18346	28.85	2
0	18347	28.85	2
0	18348	28.85	2
0	18357	28.9	2
0	18358	28.9	2
0	18359	28.9	2
0	18360	28.9	2
0	18361	28.9	2
0	18362	28.9	2
0	18363	28.9	2
0	18364	28.9	2
0	18381	28.95	2
0	18382	28.95	2
0	18383	28.95	2
0	18384	28.95	2
0	18393	29	2
0	18394	29	2
0	18395	29	2
0	18396	29	2
0	18397	29	2
0	18398	29	2
0	18399	29	2
0	18400	29	2
0	18417	29.05	2
0	18418	29.05	2
0	18419	29.05	2
0	18420	29.05	2
0	18496	29.1	2
0	18497	29.1	2
0	18498	29.1	2
0	18499	29.1	2
0	18500	29.1	2
0	18501	29.1	2
0	18502	29.1	2
0	18503	29.1	2
0	18538	29.15	2
0	18539	29.15	2
0	18540	29.15	2
0	18541	29.15	2
0	18572	29.2	2
0	18573	29.2	2
0	18574	29.2	2
0	18575	29.2	2
0	18576	29.2	2
0	18577	29.2	2
0	18578	29.2	2
0	18579	29.2	2
0	18633	29.25	2
0	18634	29.25	2
0	18635	29.25	2
0	18636	29.25	2
0	18673	29.3	2
0	18674	29.3	2
0	18675	29.3	2
0	18676	29.3	2
0	18677	29.3	2
0	18678	29.3	2
0	18679	29.3	2
0	18680	29.3	2
0	18731	29.35	2
0	18732	29.35	2
0	18733	29.35	2
0	18734	29.35	2
0	18762	29.4	2
0	18763	29.4	2
0	18764	29.4	2
0	18765	29.4	2
0	18766	29.4	2
0	18767	29.4	2
0	18768	29.4	2
0	18769	29.4	2
0	18786	29.45	2
0	18787	29.45	2
0	18788	29.45	2
0	18789	29.45	2
0	18808	29.5	2
0	18809	29.5	2
0	18810	29.5	2
0	18811	29.5	2
0	18812	29.5	2
0	18813	29.5	2
0	18814	29.5	2
0	18815	29.5	2
0	18845	29.55	2
0	18846	29.55	2
0	18847	29.55	2
0	18848	29.55	2
0	18857	29.6	2
0	18858	29.6	2
0	18859	29.6	2
0	18860	29.6	2
0	18861	29.6	2
0	18862	29.6	2
0	18863	29.6	2
0	18864	29.6	2
0	18931	29.65	2
0	18932	29.65	2
0	18933	29.65	2
0	18934	29.65	2
0	18971	29.7	2
0	18972	29.7	2
0	18973	29.7	2
0	18974	29.7	2
0	18975	29.7	2
0	18976	29.7	2
0	18977	29.7	2
0	18978	29.7	2
0	19016	29.75	2
0	19017	29.75	2
0	19018	29.75	2
0	19019	29.75	2
0	19069	29.8	2
0	19070	29.8	2
0	19071	29.8	2
0	19072	29.8	2
0	19073	29.8	2
0	19074	29.8	2
0	19075	29.8	2
0	19076	29.8	2
0	19093	29.85	2
0	19094	29.85	2
0	19095	29.85	2
0	19096	29.85	2
0	19118	29.9	2
0	19119	29.9	2
0	19120	29.9	2
0	19121	29.9	2
0	19122	29.9	2
0	19123	29.9	2
0	19124	29.9	2
0	19125	29.9	2
0	19142	29.95	2
0	19143	29.95	2
0	19144	29.95	2
0	19145	29.95	2
0	19154	30	2
0	19155	30	2
0	19156	30	2
0	19157	30	2
0	19158	30	2
0	19159	30	2
0	19160	30	2
0	19161	30	2
0	19181	30.05	2
0	19182	30.05	2
0	19183	30.05	2
0	19184	30.05	2
0	19193	30.1	2
0	19194	30.1	2
0	19195	30.1	2
0	19196	30.1	2
0	19197	30.1	2
0	19198	30.1	2
0	19199	30.1	2
0	19200	30.1	2
0	19217	30.15	2
0	19218	30.15	2
0	19219	30.15	2
0	19220	30.15	2
0	19280	30.2	2
0	19281	30.2	2
0	19282	30.2	2
0	19283	30.2	2
0	19284	30.2	2
0	19285	30.2	2
0	19286	30.2	2
0	19287	30.2	2
0	19335	30.25	2
0	19336	30.25	2
0	19337	30.25	2
0	19338	30.25	2
0	19348	30.3	2
0	19349	30.3	2
0	19350	30.3	2
0	19351	30.3	2
0	19352	30.3	2
0	19353	30.3	2
0	19354	30.3	2
0	19355	30.3	2
0	19398	30.35	2
0	19399	30.35	2
0	19400	30.35	2
0	19401	30.35	2
0	19410	30.4	2
0	19411	30.4	2
0	19412	30.4	2
0	19413	30.4	2
0	19414	30.4	2
0	19415	30.4	2
0	19416	30.4	2
0	19417	30.4	2
0	19434	30.45	2
0	19435	30.45	2
0	19436	30.45	2
0	19437	30.45	2
0	19446	30.5	2
0	19447	30.5	2
0	19448	30.5	2
0	19449	30.5	2
0	19450	30.5	2
0	19451	30.5	2
0	19452	30.5	2
0	19453	30.5	2
0	19470	30.55	2
0	19471	30.55	2
0	19472	30.55	2
0	19473	30.55	2
0	19482	30.6	2
0	19483	30.6	2
0	19484	30.6	2
0	19485	30.6	2
0	19486	30.6	2
0	19487	30.6	2
0	19488	30.6	2
0	19489	30.6	2
0	19506	30.65	2
0	19507	30.65	2
0	19508	30.65	2
0	19509	30.65	2
0	19518	30.7	2
0	19519	30.7	2
0	19520	30.7	2
0	19521	30.7	2
0	19522	30.7	2
0	19523	30.7	2
0	19524	30.7	2
0	19525	30.7	2
0	19593	30.75	2
0	19594	30.75	2
0	19595	30.75	2
0	19596	30.75	2
0	19613	30.8	2
0	19614	30.8	2
0	19615	30.8	2
0	19616	30.8	2
0	19617	30.8	2
0	19618	30.8	2
0	19619	30.8	2
0	19620	30.8	2
0	19637	30.85	2
0	19638	30.85	2
0	19639	30.85	2
0	19640	30.85	2
0	19662	30.9	2
0	19663	30.9	2
0	19664	30.9	2
0	19665	30.9	2
0	19666	30.9	2
0	19667	30.9	2
0	19668	30.9	2
0	19669	30.9	2
0	19686	30.95	2
0	19687	30.95	2
0	19688	30.95	2
0	19689	30.95	2
0	19698	31	2
0	19699	31	2
0	19700	31	2
0	19701	31	2
0	19702	31	2
0	19703	31	2
0	19704	31	2
0	19705	31	2
0	19722	31.05	2
0	19723	31.05	2
0	19724	31.05	2
0	19725	31.05	2
0	19734	31.1	2
0	19735	31.1	2
0	19736	31.1	2
0	19737	31.1	2
0	19738	31.1	2
0	19739	31.1	2
0	19740	31.1	2
0	19741	31.1	2
0	19768	31.15	2
0	19769	31.15	2
0	19770	31.15	2
0	19771	31.15	2
0	19780	31.2	2
0	19781	31.2	2
0	19782	31.2	2
0	19783	31.2	2
0	19784	31.2	2
0	19785	31.2	2
0	19786	31.2	2
0	19787	31.2	2
0	19804	31.25	2
0	19805	31.25	2
0	19806	31.25	2
0	19807	31.25	2
0	19857	31.3	2
0	19858	31.3	2
0	19859	31.3	2
0	19860	31.3	2
0	19861	31.3	2
0	19862	31.3	2
0	19863	31.3	2
0	19864	31.3	2
0	19881	31.35	2
0	19882	31.35	2
0	19883	31.35	2
0	19884	31.35	2
0	19893	31.4	2
0	19894	31.4	2
0	19895	31.4	2
0	19896	31.4	2
0	19897	31.4	2
0	19898	31.4	2
0	19899	31.4	2
0	19900	31.4	2
0	19930	31.45	2
0	19931	31.45	2
0	19932	31.45	2
0	19933	31.45	2
0	19945	31.5	2
0	19946	31.5	2
0	19947	31.5	2
0	19948	31.5	2
0	19949	31.5	2
0	19950	31.5	2
0	19951	31.5	2
0	19952	31.5	2
0	19969	31.55	2
0	19970	31.55	2
0	19971	31.55	2
0	19972	31.55	2
0	19981	31.6	2
0	19982	31.6	2
0	19983	31.6	2
0	19984	31.6	2
0	19985	31.6	2
0	19986	31.6	2
0	19987	31.6	2
0	19988	31.6	2
0	20015	31.65	2
0	20016	31.65	2
0	20017	31.65	2
0	20018	31.65	2
0	20030	31.7	2
0	20031	31.7	2
0	20032	31.7	2
0	20033	31.7	2
0	20034	31.7	2
0	20035	31.7	2
0	20036	31.7	2
0	20037	31.7	2
0	20054	31.75	2
0	20055	31.75	2
0	20056	31.75	2
0	20057	31.75	2
0	20066	31.8	2
0	20067	31.8	2
0	20068	31.8	2
0	20069	31.8	2
0	20070	31.8	2
0	20071	31.8	2
0	20072	31.8	2
0	20073	31.8	2
0	20106	31.85	2
0	20107	31.85	2
0	20108	31.85	2
0	20109	31.85	2
0	20118	31.9	2
0	20119	31.9	2
0	20120	31.9	2
0	20121	31.9	2
0	20122	31.9	2
0	20123	31.9	2
0	20124	31.9	2
0	20125	31.9	2
0	20142	31.95	2
0	20143	31.95	2
0	20144	31.95	2
0	20145	31.95	2
0	20167	32	2
0	20168	32	2
0	20169	32	2
0	20170	32	2
0	20171	32	2
0	20172	32	2
0	20173	32	2
0	20174	32	2
0	20204	32.05	2
0	20205	32.05	2
0	20206	32.05	2
0	20207	32.05	2
0	20216	32.1	2
0	20217	32.1	2
0	20218	32.1	2
0	20219	32.1	2
0	20220	32.1	2
0	20221	32.1	2
0	20222	32.1	2
0	20223	32.1	2
0	20240	32.15	2
0	20241	32.15	2
0	20242	32.15	2
0	20243	32.15	2
0	20265	32.2	2
0	20266	32.2	2
0	20267	32.2	2
0	20268	32.2	2
0	20269	32.2	2
0	20270	32.2	2
0	20271	32.2	2
0	20272	32.2	2
0	20289	32.25	2
0	20290	32.25	2
0	20291	32.25	2
0	20292	32.25	2
0	20301	32.3	2
0	20302	32.3	2
0	20303	32.3	2
0	20304	32.3	2
0	20305	32.3	2
0	20306	32.3	2
0	20307	32.3	2
0	20308	32.3	2
0	20328	32.35	2
0	20329	32.35	2
0	20330	32.35	2
0	20331	32.35	2
0	20343	32.4	2
0	20344	32.4	2
0	20345	32.4	2
0	20346	32.4	2
0	20347	32.4	2
0	20348	32.4	2
0	20349	32.4	2
0	20350	32.4	2
0	20367	32.45	2
0	20368	32.45	2
0	20369	32.45	2
0	20370	32.45	2
0	20392	32.5	2
0	20393	32.5	2
0	20394	32.5	2
0	20395	32.5	2
0	20396	32.5	2
0	20397	32.5	2
0	20398	32.5	2
0	20399	32.5	2
0	20416	32.55	2
0	20417	32.55	2
0	20418	32.55	2
0	20419	32.55	2
0	20441	32.6	2
0	20442	32.6	2
0	20443	32.6	2
0	20444	32.6	2
0	20445	32.6	2
0	20446	32.6	2
0	20447	32.6	2
0	20448	32.6	2
0	20465	32.65	2
0	20466	32.65	2
0	20467	32.65	2
0	20468	32.65	2
0	20477	32.7	2
0	20478	32.7	2
0	20479	32.7	2
0	20480	32.7	2
0	20481	32.7	2
0	20482	32.7	2
0	20483	32.7	2
0	20484	32.7	2
0	20511	32.75	2
0	20512	32.75	2
0	20513	32.75	2
0	20514	32.75	2
0	20523	32.8	2
0	20524	32.8	2
0	20525	32.8	2
0	20526	32.8	2
0	20527	32.8	2
0	20528	32.8	2
0	20529	32.8	2
0	20530	32.8	2
0	20547	32.85	2
0	20548	32.85	2
0	20549	32.85	2
0	20550	32.85	2
0	20575	32.9	2
0	20576	32.9	2
0	20577	32.9	2
0	20578	32.9	2
0	20579	32.9	2
0	20580	32.9	2
0	20581	32.9	2
0	20582	32.9	2
0	20599	32.95	2
0	20600	32.95	2
0	20601	32.95	2
0	20602	32.95	2
0	20611	33	2
0	20612	33	2
0	20613	33	2
0	20614	33	2
0	20615	33	2
0	20616	33	2
0	20617	33	2
0	20618	33	2
0	20645	33.05	2
0	20646	33.05	2
0	20647	33.05	2
0	20648	33.05	2
0	20657	33.1	2
0	20658	33.1	2
0	20659	33.1	2
0	20660	33.1	2
0	20661	33.1	2
0	20662	33.1	2
0	20663	33.1	2
0	20664	33.1	2
0	20694	33.15	2
0	20695	33.15	2
0	20696	33.15	2
0	20697	33.15	2
0	20706	33.2	2
0	20707	33.2	2
0	20708	33.2	2
0	20709	33.2	2
0	20710	33.2	2
0	20711	33.2	2
0	20712	33.2	2
0	20713	33.2	2
0	20730	33.25	2
0	20731	33.25	2
0	20732	33.25	2
0	20733	33.25	2
0	20745	33.3	2
0	20746	33.3	2
0	20747	33.3	2
0	20748	33.3	2
0	20749	33.3	2
0	20750	33.3	2
0	20751	33.3	2
0	20752	33.3	2
0	20769	33.35	2
0	20770	33.35	2
0	20771	33.35	2
0	20772	33.35	2
0	20781	33.4	2
0	20782	33.4	2
0	20783	33.4	2
0	20784	33.4	2
0	20785	33.4	2
0	20786	33.4	2
0	20787	33.4	2
0	20788	33.4	2
0	20808	33.45	2
0	20809	33.45	2
0	20810	33.45	2
0	20811	33.45	2
0	20820	33.5	2
0	20821	33.5	2
0	20822	33.5	2
0	20823	33.5	2
0	20824	33.5	2
0	20825	33.5	2
0	20826	33.5	2
0	20827	33.5	2
0	20844	33.55	2
0	20845	33.55	2
0	20846	33.55	2
0	20847	33.55	2
0	20859	33.6	2
0	20860	33.6	2
0	20861	33.6	2
0	20862	33.6	2
0	20863	33.6	2
0	20864	33.6	2
0	20865	33.6	2
0	20866	33.6	2
0	20883	33.65	2
0	20884	33.65	2
0	20885	33.65	2
0	20886	33.65	2
0	20895	33.7	2
0	20896	33.7	2
0	20897	33.7	2
0	20898	33.7	2
0	20899	33.7	2
0	20900	33.7	2
0	20901	33.7	2
0	20902	33.7	2
0	20919	33.75	2
0	20920	33.75	2
0	20921	33.75	2
0	20922	33.75	2
0	20931	33.8	2
0	20932	33.8	2
0	20933	33.8	2
0	20934	33.8	2
0	20935	33.8	2
0	20936	33.8	2
0	20937	33.8	2
0	20938	33.8	2
0	20955	33.85	2
0	20956	33.85	2
0	20957	33.85	2
0	20958	33.85	2
0	20967	33.9	2
0	20968	33.9	2
0	20969	33.9	2
0	20970	33.9	2
0	20971	33.9	2
0	20972	33.9	2
0	20973	33.9	2
0	20974	33.9	2
0	20991	33.95	2
0	20992	33.95	2
0	20993	33.95	2
0	20994	33.95	2
0	21019	34	2
0	21020	34	2
0	21021	34	2
0	21022	34	2
0	21023	34	2
0	21024	34	2
0	21025	34	2
0	21026	34	2
0	21043	34.05	2
0	21044	34.05	2
0	21045	34.05	2
0	21046	34.05	2
0	21065	34.1	2
0	21066	34.1	2
0	21067	34.1	2
0	21068	34.1	2
0	21069	34.1	2
0	21070	34.1	2
0	21071	34.1	2
0	21072	34.1	2
0	21102	34.15	2
0	21103	34.15	2
0	21104	34.15	2
0	21105	34.15	2
1	25	0.1	-nan
1	27	0.1	-nan
1	53	0.101	-nan
1	54	0.101	-nan
1	57	0.102	-nan
1	58	0.102	-nan
1	61	0.103	-nan
1	62	0.103	-nan
1	65	0.104	-nan
1	66	0.104	-nan
1	69	0.105	-nan
1	70	0.105	-nan
1	73	0.106	-nan
1	74	0.106	-nan
1	77	0.107	-nan
1	78	0.107	-nan
1	81	0.108	-nan
1	82	0.108	-nan
1	85	0.109	-nan
1	86	0.109	-nan
1	89	0.11	-nan
1	90	0.11	-nan
1	93	0.111	-nan
1	94	0.111	-nan
1	97	0.112	-nan
1	98	0.112	-nan
1	101	0.113	-nan
1	102	0.113	-nan
1	105	0.114	-nan
1	106	0.114	-nan
1	109	0.115	-nan
1	110	0.115	-nan
1	113	0.116	-nan
1	114	0.116	-nan
1	117	0.117	-nan
1	118	0.117	-nan
1	121	0.118	-nan
1	122	0.118	-nan
1	125	0.119	-nan
1	126	0.119	-nan
1	129	0.12	-nan
1	130	0.12	-nan
1	133	0.121	-nan
1	134	0.121	-nan
1	137	0.122	-nan
1	138	0.122	-nan
1	141	0.123	-nan
1	142	0.123	-nan
1	145	0.124	-nan
1	146	0.124	-nan
1	149	0.125	-nan
1	150	0.125	-nan
1	153	0.126	-nan
1	154	0.126	-nan
1	157	0.127	-nan
1	158	0.127	-nan
1	161	0.128	-nan
1	162	0.128	-nan
1	165	0.129	-nan
1	166	0.129	-nan
1	169	0.13	-nan
1	170	0.13	-nan
1	173	0.131	-nan
1	174	0.131	-nan
1	177	0.132	-nan
1	178	0.132	-nan
1	181	0.133	-nan
1	182	0.133	-nan
1	185	0.134	-nan
1	186	0.134	-nan
1	189	0.135	-nan
1	190	0.135	-nan
1	193	0.136	-nan
1	194	0.136	-nan
1	197	0.137	-nan
1	198	0.137	-nan
1	201	0.138	-nan
1	202	0.138	-nan
1	205	0.139	-nan
1	206	0.139	-nan
1	209	0.14	-nan
1	210	0.14	-nan
1	213	0.141	-nan
1	214	0.141	-nan
1	217	0.142	-nan
1	218	0.142	-nan
1	221	0.143	-nan
1	222	0.143	-nan
1	225	0.144	-nan
1	226	0.144	-nan
1	229	0.145	-nan
1	230	0.145	-nan
1	233	0.146	-nan
1	234	0.146	-nan
1	237	0.147	-nan
1	238	0.147	-nan
1	241	0.148	-nan
1	242	0.148	-nan
1	245	0.149	-nan
1	246	0.149	-nan
1	253	0.15	-nan
1	254	0.15	-nan
1	265	0.151	-nan
1	266	0.151	-nan
1	269	0.152	-nan
1	270	0.152	-nan
1	273	0.153	-nan
1	274	0.153	-nan
1	277	0.154	-nan
1	278	0.154	-nan
1	281	0.155	-nan
1	282	0.155	-nan
1	285	0.156	-nan
1	286	0.156	-nan
1	289	0.157	-nan
1	290	0.157	-nan
1	293	0.158	-nan
1	294	0.158	-nan
1	297	0.159	-nan
1	298	0.159	-nan
1	301	0.16	-nan
1	302	0.16	-nan
1	305	0.161	-nan
1	306	0.161	-nan
1	309	0.162	-nan
1	310	0.162	-nan
1	313	0.163	-nan
1	314	0.163	-nan
1	317	0.164	-nan
1	318	0.164	-nan
1	321	0.165	-nan
1	322	0.165	-nan
1	325	0.166	-nan
1	326	0.166	-nan
1	329	0.167	-nan
1	330	0.167	-nan
1	333	0.168	-nan
1	334	0.168	-nan
1	337	0.169	-nan
1	338	0.169	-nan
1	341	0.17	-nan
1	342	0.17	-nan
1	345	0.171	-nan
1	346	0.171	-nan
1	349	0.172	-nan
1	350	0.172	-nan
1	353	0.173	-nan
1	354	0.173	-nan
1	357	0.174	-nan
1	358	0.174	-nan
1	361	0.175	-nan
1	362	0.175	-nan
1	365	0.176	-nan
1	366	0.176	-nan
1	369	0.177	-nan
1	370	0.177	-nan
1	373	0.178	-nan
1	374	0.178	-nan
1	377	0.179	-nan
1	378	0.179	-nan
1	381	0.18	-nan
1	382	0.18	-nan
1	385	0.181	-nan
1	386	0.181	-nan
1	389	0.182	-nan
1	390	0.182	-nan
1	393	0.183	-nan
1	394	0.183	-nan
1	397	0.184	-nan
1	398	0.184	-nan
1	401	0.185	-nan
1	402	0.185	-nan
1	405	0.186	-nan
1	406	0.186	-nan
1	409	0.187	-nan
1	410	0.187	-nan
1	413	0.188	-nan
1	414	0.188	-nan
1	417	0.189	-nan
1	418	0.189	-nan
1	421	0.19	-nan
1	422	0.19	-nan
1	425	0.191	-nan
1	426	0.191	-nan
1	429	0.192	-nan
1	430	0.192	-nan
1	433	0.193	-nan
1	434	0.193	-nan
1	437	0.194	-nan
1	438	0.194	-nan
1	441	0.195	-nan
1	442	0.195	-nan
1	445	0.196	-nan
1	446	0.196	-nan
1	449	0.197	-nan
1	450	0.197	-nan
1	453	0.198	-nan
1	454	0.198	-nan
1	457	0.199	-nan
1	458	0.199	-nan
2	1056	1.138430839471	141
2	1079	1.166110839471	282
2	1089	1.179950839471	423
2	1099	1.193790839471	564
2	1130	1.207630839471	705
2	1142	1.249150839471	846
2	1161	1.262990839471	987
2	1171	1.276830839471	1128
2	1178	1.290670839471	1269
2	1212	1.304510839471	1410
2	1222	1.318350839471	1551
2	1243	1.359870839471	1692
2	1253	1.373710839471	1833
2	1288	1.401390839471	1974
2	1299	1.429070839471	2115
2	1306	1.442910839471	2256
2	1329	1.470590839471	2397
2	1365	1.512110839471	2538
2	1372	1.525950839471	2679
2	1393	1.567470839471	2820
2	1404	1.595150839471	2961
2	1438	1.608990839471	3102
2	1448	1.622830839471	3243
2	1458	1.636670839471	3384
2	1493	1.664350839471	3525
2	1500	1.678190839471	3666
2	1510	1.692030839471	3807
2	1545	1.719710839471	3948
2	1567	1.775070839471	4089
2	1577	1.788910839471	4230
2	1610	1.802750839471	4371
2	1622	1.844270839471	4512
2	1644	1.858110839471	4653
2	1652	1.885790839471	4794
2	1684	1.913470839471	4935
2	1692	1.941150839471	5076
2	1711	1.954990839471	5217
2	1722	1.982670839471	5358
2	1732	1.996510839471	5499
2	1764	2.024190839471	5640
2	1787	2.051870839471	5781
2	1797	2.065710839471	5922
2	1807	2.079550839471	6063
2	1845	2.148750839471	6204
2	1868	2.176430839471	6345
2	1875	2.190270839471	6486
2	1906	2.204110839471	6627
2	1917	2.231790839471	6768
2	1927	2.245630839471	6909
2	1946	2.259470839471	7050
2	1956	2.273310839471	7191
2	1992	2.314830839471	7332
2	2002	2.328670839471	7473
2	2025	2.356350839471	7614
2	2035	2.370190839471	7755
2	2045	2.384030839471	7896
2	2055	2.397870839471	8037
2	2087	2.425550839471	8178
2	2097	2.439390839471	8319
2	2120	2.467070839471	8460
2	2130	2.480910839471	8601
2	2140	2.494750839471	8742
2	2171	2.508590839471	8883
2	2737	3.278750839471	9024
2	2772	3.306430839471	9165
2	2782	3.320270839471	9306
2	2792	3.334110839471	9447
2	2815	3.361790839471	9588
2	2825	3.375630839471	9729
2	2835	3.389470839471	9870
2	2873	3.403310839471	10011
2	2886	3.417150839471	10152
2	2905	3.430990839471	10293
2	2912	3.444830839471	10434
2	2963	3.527870839471	10575
2	2986	3.555550839471	10716
2	2996	3.569390839471	10857
2	3029	3.610910839471	10998
2	3040	3.638590839471	11139
2	3062	3.652430839471	11280
2	3072	3.666270839471	11421
2	3082	3.680110839471	11562
2	3089	3.693950839471	11703
2	3124	3.721630839471	11844
2	3134	3.735470839471	11985
2	3144	3.749310839471	12126
2	3166	3.763150839471	12267
2	3177	3.790830839471	12408
2	3217	3.804670839471	12549
2	3238	3.818510839471	12690
2	3256	3.832350839471	12831
2	3266	3.846190839471	12972
2	3288	3.860030839471	13113
2	3298	3.873870839471	13254
2	3334	3.915390839471	13395
2	3359	3.956910839471	13536
2	3378	3.970750839471	13677
2	3416	4.039950839471	13818
2	3435	4.053790839471	13959
2	3444	4.095310839471	14100
2	3479	4.122990839471	14241
2	3500	4.164510839471	14382
2	3510	4.178350839471	14523
2	3520	4.192190839471	14664
2	3551	4.206030839471	14805
2	3558	4.219870839471	14946
2	3569	4.247550839471	15087
2	3591	4.261390839471	15228
2	3601	4.275230839471	15369
2	3608	4.289070839471	15510
2	3644	4.302910839471	15651
2	3658	4.316750839471	15792
2	3669	4.344430839471	15933
2	3693	4.358270839471	16074
2	3711	4.372110839471	16215
2	3721	4.385950839471	16356
2	3756	4.413630839471	16497
2	3766	4.427470839471	16638
2	3793	4.482830839471	16779
2	3829	4.524350839471	16920
2	3852	4.552030839471	17061
2	3859	4.565870839471	17202
2	3870	4.593550839471	17343
2	3902	4.621230839471	17484
2	3909	4.635070839471	17625
2	3916	4.648910839471	17766
2	4588	5.620270839471	17907
2	4599	5.647950839471	18048
2	4621	5.661790839471	18189
2	4631	5.675630839471	18330
2	4641	5.689470839471	18471
2	4675	5.703310839471	18612
2	4686	5.730990839471	18753
2	4709	5.758670839471	18894
2	4717	5.786350839471	19035
2	4752	5.814030839471	19176
2	4762	5.827870839471	19317
2	4772	5.841710839471	19458
2	4794	5.855550839471	19599
2	4805	5.883230839471	19740
2	4812	5.897070839471	19881
2	4843	5.910910839471	20022
2	4853	5.924750839471	20163
2	4877	5.952430839471	20304
2	4884	5.966270839471	20445
2	4932	6.007790839471	20586
2	4957	6.063150839471	20727
2	4967	6.076990839471	20868
2	4977	6.090830839471	21009
2	5013	6.104670839471	21150
2	5034	6.118510839471	21291
2	5044	6.132350839471	21432
2	5069	6.187710839471	21573
2	5103	6.201550839471	21714
2	5113	6.215390839471	21855
2	5124	6.243070839471	21996
2	5146	6.256910839471	22137
2	5156	6.270750839471	22278
2	5166	6.284590839471	22419
2	5173	6.298430839471	22560
2	5207	6.312270839471	22701
2	5217	6.326110839471	22842
2	5240	6.353790839471	22983
2	5250	6.367630839471	23124
2	5257	6.381470839471	23265
2	5292	6.409150839471	23406
2	5317	6.464510839471	23547
2	5327	6.478350839471	23688
2	5361	6.506030839471	23829
2	5379	6.519870839471	23970
2	5389	6.533710839471	24111
2	5399	6.547550839471	24252
2	5423	6.561390839471	24393
2	5430	6.575230839471	24534
2	5437	6.589070839471	24675
2	5472	6.616750839471	24816
2	5479	6.630590839471	24957
2	5489	6.644430839471	25098
2	5525	6.672110839471	25239
2	5532	6.685950839471	25380
2	5542	6.699790839471	25521
2	5573	6.713630839471	25662
2	5584	6.741310839471	25803
2	5607	6.768990839471	25944
2	5614	6.782830839471	26085
2	5621	6.796670839471	26226
2	5652	6.810510839471	26367
2	5662	6.824350839471	26508
2	5669	6.838190839471	26649
2	5691	6.852030839471	26790
2	5698	6.865870839471	26931
2	5705	6.879710839471	27072
2	5738	6.921230839471	27213
2	5748	6.935070839471	27354
2	5772	6.976590839471	27495
2	5817	7.018110839471	27636
2	5827	7.031950839471	27777
2	5837	7.045790839471	27918
2	5861	7.059630839471	28059
2	5908	7.101150839471	28200
2	5915	7.114990839471	28341
2	5923	7.142670839471	28482
2	5946	7.156510839471	28623
2	5957	7.184190839471	28764
2	5967	7.198030839471	28905
2	6010	7.211870839471	29046
2	6018	7.225710839471	29187
2	7425	10.388430839471	29328
2	7459	10.402270839471	29469
2	7470	10.429950839471	29610
2	7477	10.443790839471	29751
2	7499	10.457630839471	29892
2	7509	10.471470839471	30033
2	7516	10.485310839471	30174
2	7570	10.526830839471	30315
2	7595	10.582190839471	30456
2	7631	10.623710839471	30597
2	7641	10.637550839471	30738
2	7664	10.665230839471	30879
2	7674	10.679070839471	31020
2	7684	10.692910839471	31161
2	7718	10.706750839471	31302
2	7728	10.720590839471	31443
2	7738	10.734430839471	31584
2	7748	10.748270839471	31725
2	7768	10.775950839471	31866
2	7805	10.831310839471	32007
2	7828	10.858990839471	32148
2	7835	10.872830839471	32289
2	7875	10.914350839471	32430
2	7883	10.942030839471	32571
2	7921	10.997390839471	32712
2	7953	11.025070839471	32853
2	7963	11.038910839471	32994
2	7982	11.052750839471	33135
2	7992	11.066590839471	33276
2	8003	11.094270839471	33417
2	8052	11.135790839471	33558
2	8062	11.149630839471	33699
2	8084	11.163470839471	33840
2	8095	11.191150839471	33981
2	8129	11.204990839471	34122
2	8136	11.218830839471	34263
2	8163	11.260350839471	34404
2	8173	11.274190839471	34545
2	8630	12.020270839471	34686
2	8640	12.034110839471	34827
2	8672	12.061790839471	34968
2	8716	12.103310839471	35109
2	8725	12.130990839471	35250
2	8735	12.144830839471	35391
2	8756	12.186350839471	35532
2	8792	12.200190839471	35673
2	8814	12.227870839471	35814
2	8824	12.241710839471	35955
2	8847	12.269390839471	36096
2	8857	12.283230839471	36237
2	8867	12.297070839471	36378
2	8899	12.324750839471	36519
2	8906	12.338590839471	36660
2	8930	12.352430839471	36801
2	8941	12.366270839471	36942
2	8951	12.380110839471	37083
2	8958	12.393950839471	37224
2	8992	12.407790839471	37365
2	9002	12.421630839471	37506
2	9012	12.435470839471	37647
2	9033	12.476990839471	37788
2	9043	12.490830839471	37929
2	9081	12.504670839471	38070
2	9098	12.518510839471	38211
2	9187	12.538430839471	38352
2	9213	12.573870839471	38493
2	9225	12.593790839471	38634
2	9261	12.601550839471	38775
2	9267	12.607630839471	38916
2	9293	12.621470839471	39057
2	9304	12.635310839471	39198
2	9315	12.649150839471	39339
2	9338	12.656910839471	39480
2	9349	12.662990839471	39621
2	9359	12.670750839471	39762
2	9367	12.684590839471	39903
2	9375	12.698430839471	40044
2	9409	12.704510839471	40185
2	9419	12.712270839471	40326
2	9429	12.732190839471	40467
2	9463	12.773710839471	40608
2	9470	12.787550839471	40749
2	9504	12.801390839471	40890
2	9511	12.815230839471	41031
2	9518	12.829070839471	41172
2	9541	12.856750839471	41313
2	9551	12.870590839471	41454
2	9587	12.912110839471	41595
2	9608	12.953630839471	41736
2	9615	12.967470839471	41877
2	9622	12.981310839471	42018
2	9629	12.995150839471	42159
2	9663	13.008990839471	42300
2	10225	14.242590839471	42441
2	10249	14.256430839471	42582
2	10267	14.270270839471	42723
2	10277	14.284110839471	42864
2	10287	14.297950839471	43005
2	10318	14.311790839471	43146
2	10328	14.325630839471	43287
2	10335	14.339470839471	43428
2	10367	14.367150839471	43569
2	10377	14.380990839471	43710
2	10384	14.394830839471	43851
2	10419	14.422510839471	43992
2	10443	14.464030839471	44133
2	10453	14.477870839471	44274
2	10463	14.491710839471	44415
2	10495	14.519390839471	44556
2	10518	14.588590839471	44697
2	10555	14.643950839471	44838
2	10581	14.657790839471	44979
2	11083	15.728750839471	45120
2	11108	15.784110839471	45261
2	11140	15.811790839471	45402
2	11150	15.825630839471	45543
2	11172	15.853310839471	45684
2	11183	15.867150839471	45825
2	11190	15.880990839471	45966
2	11200	15.894830839471	46107
2	11234	15.908670839471	46248
2	11241	15.922510839471	46389
2	11251	15.936350839471	46530
2	11283	15.964030839471	46671
2	11297	15.977870839471	46812
2	11329	16.005550839471	46953
2	11340	16.033230839471	47094
2	11350	16.047070839471	47235
2	11375	16.060910839471	47376
2	11383	16.088590839471	47517
2	11419	16.102430839471	47658
2	11435	16.130110839471	47799
2	11442	16.143950839471	47940
2	11788	16.692590839471	48081
2	11819	16.706430839471	48222
2	11829	16.720270839471	48363
2	11837	16.747950839471	48504
2	11859	16.761790839471	48645
2	11866	16.775630839471	48786
2	11873	16.789470839471	48927
2	11911	16.803310839471	49068
2	11932	16.817150839471	49209
2	11947	16.830990839471	49350
2	11954	16.844830839471	49491
2	11976	16.858670839471	49632
2	12009	16.900190839471	49773
2	12020	16.927870839471	49914
2	12030	16.941710839471	50055
2	12073	16.969390839471	50196
2	12109	17.010910839471	50337
2	12119	17.024750839471	50478
2	12153	17.080110839471	50619
2	12188	17.107790839471	50760
2	12195	17.121630839471	50901
2	12205	17.135470839471	51042
2	12228	17.163150839471	51183
2	12238	17.176990839471	51324
2	13007	18.842590839471	51465
2	13030	18.870270839471	51606
2	13040	18.884110839471	51747
2	13077	18.939470839471	51888
2	13099	18.953310839471	52029
2	13111	18.994830839471	52170
2	13145	19.008670839471	52311
2	13173	19.077870839471	52452
2	13183	19.091710839471	52593
2	13219	19.105550839471	52734
2	13230	19.119390839471	52875
2	13645	19.928750839471	53016
2	13668	19.956430839471	53157
2	13675	19.970270839471	53298
2	13682	19.984110839471	53439
2	13689	19.997950839471	53580
2	13721	20.025630839471	53721
2	13741	20.053310839471	53862
2	13748	20.067150839471	54003
2	13920	20.328750839471	54144
2	13947	20.384110839471	54285
2	13954	20.397950839471	54426
2	13988	20.411790839471	54567
2	13998	20.425630839471	54708
2	14005	20.439470839471	54849
2	14029	20.453310839471	54990
2	14037	20.467150839471	55131
2	14047	20.480990839471	55272
2	14054	20.494830839471	55413
2	14086	20.522510839471	55554
2	14096	20.536350839471	55695
2	14118	20.550190839471	55836
2	14128	20.564030839471	55977
2	14138	20.577870839471	56118
2	14148	20.591710839471	56259
2	14425	21.092590839471	56400
2	14456	21.106430839471	56541
2	14463	21.120270839471	56682
2	14473	21.134110839471	56823
2	14480	21.147950839471	56964
2	14502	21.161790839471	57105
2	14512	21.175630839471	57246
2	14522	21.189470839471	57387
2	14558	21.203310839471	57528
2	14569	21.217150839471	57669
2	14579	21.230990839471	57810
2	14586	21.244830839471	57951
2	14609	21.272510839471	58092
2	14619	21.286350839471	58233
2	14654	21.327870839471	58374
2	14934	21.928750839471	58515
2	14941	21.942590839471	58656
2	14963	21.956430839471	58797
2	14974	21.984110839471	58938
2	14981	21.997950839471	59079
2	15015	22.011790839471	59220
2	15026	22.039470839471	59361
2	15052	22.053310839471	59502
2	15135	22.094947738403	59643
2	15166	22.108787738403	59784
2	15187	22.150307738403	59925
2	15198	22.177987738403	60066
2	15205	22.191827738403	60207
2	15241	22.205667738403	60348
2	15250	22.233347738403	60489
2	15273	22.261027738403	60630
2	15284	22.288707738403	60771
2	15318	22.302547738403	60912
2	15341	22.371747738403	61053
2	15351	22.385587738403	61194
2	15361	22.399427738403	61335
2	15542	22.688430839471	61476
2	15573	22.702270839471	61617
2	15580	22.716110839471	61758
2	15591	22.743790839471	61899
2	15614	22.771470839471	62040
2	15624	22.785310839471	62181
2	15634	22.799150839471	62322
2	15865	23.238430839471	62463
2	15887	23.252270839471	62604
2	15898	23.279950839471	62745
2	15905	23.293790839471	62886
2	16184	23.870270839471	63027
2	16842	25.428750839471	63168
2	16852	25.442590839471	63309
2	17109	25.978750839471	63450
2	17536	26.978750839471	63591
2	17546	26.992590839471	63732
2	17582	27.006430839471	63873
2	18492	29.092590839471	64014
2	18524	29.120270839471	64155
2	18535	29.147950839471	64296
2	18558	29.175630839471	64437
2	18565	29.189470839471	64578
2	18609	29.217150839471	64719
2	18616	29.230990839471	64860
2	18626	29.244830839471	65001
2	18648	29.258670839471	65142
2	18655	29.272510839471	65283
2	18665	29.286350839471	65424
2	18701	29.300190839471	65565
2	18724	29.341710839471	65706
2	18746	29.355550839471	65847
2	18757	29.383230839471	65988
2	18924	29.642590839471	66129
2	18948	29.656430839471	66270
2	18956	29.670270839471	66411
2	18963	29.684110839471	66552
2	18998	29.711790839471	66693
2	19009	29.739470839471	66834
2	19033	29.753310839471	66975
2	19047	29.767150839471	67116
2	19058	29.794830839471	67257
2	19275	30.178750839471	67398
2	19307	30.206430839471	67539
2	19317	30.220270839471	67680
2	19327	30.234110839471	67821
2	19576	30.728750839471	67962
2	19586	30.742590839471	68103
2	19608	30.756430839471	68244
2	19849	31.278750839471	68385
3	1056	1.138430839471	141
3	1079	1.166110839471	282
3	1089	1.179950839471	423
3	1099	1.193790839471	564
3	1130	1.207630839471	705
3	1142	1.249150839471	846
3	1161	1.262990839471	987
3	1171	1.276830839471	1128
3	1178	1.290670839471	1269
3	1212	1.304510839471	1410
3	1222	1.318350839471	1551
3	1243	1.359870839471	1692
3	1253	1.373710839471	1833
3	1288	1.401390839471	1974
3	1299	1.429070839471	2115
3	1306	1.442910839471	2256
3	1329	1.470590839471	2397
3	1365	1.512110839471	2538
3	1372	1.525950839471	2679
3	1393	1.567470839471	2820
3	1404	1.595150839471	2961
3	1438	1.608990839471	3102
3	1448	1.622830839471	3243
3	1458	1.636670839471	3384
3	1493	1.664350839471	3525
3	1500	1.678190839471	3666
3	1510	1.692030839471	3807
3	1545	1.719710839471	3948
3	1567	1.775070839471	4089
3	1577	1.788910839471	4230
3	1610	1.802750839471	4371
3	1622	1.844270839471	4512
3	1644	1.858110839471	4653
3	1652	1.885790839471	4794
3	1684	1.913470839471	4935
3	1692	1.941150839471	5076
3	1711	1.954990839471	5217
3	1722	1.982670839471	5358
3	1732	1.996510839471	5499
3	1764	2.024190839471	5640
3	1787	2.051870839471	5781
3	1797	2.065710839471	5922
3	1807	2.079550839471	6063
3	1845	2.148750839471	6204
3	1868	2.176430839471	6345
3	1875	2.190270839471	6486
3	1906	2.204110839471	6627
3	1917	2.231790839471	6768
3	1927	2.245630839471	6909
3	1946	2.259470839471	7050
3	1956	2.273310839471	7191
3	1992	2.314830839471	7332
3	2002	2.328670839471	7473
3	2025	2.356350839471	7614
3	2035	2.370190839471	7755
3	2045	2.384030839471	7896
3	2055	2.397870839471	8037
3	2087	2.425550839471	8178
3	2097	2.439390839471	8319
3	2120	2.467070839471	8460
3	2130	2.480910839471	8601
3	2140	2.494750839471	8742
3	2171	2.508590839471	8883
3	2737	3.278750839471	9024
3	2772	3.306430839471	9165
3	2782	3.320270839471	9306
3	2792	3.334110839471	9447
3	2815	3.361790839471	9588
3	2825	3.375630839471	9729
3	2835	3.389470839471	9870
3	2873	3.403310839471	10011
3	2886	3.417150839471	10152
3	2905	3.430990839471	10293
3	2912	3.444830839471	10434
3	2963	3.527870839471	10575
3	2986	3.555550839471	10716
3	2996	3.569390839471	10857
3	3029	3.610910839471	10998
3	3040	3.638590839471	11139
3	3062	3.652430839471	11280
3	3072	3.666270839471	11421
3	3082	3.680110839471	11562
3	3089	3.693950839471	11703
3	3124	3.721630839471	11844
3	3134	3.735470839471	11985
3	3144	3.749310839471	12126
3	3166	3.763150839471	12267
3	3177	3.790830839471	12408
3	3217	3.804670839471	12549
3	3238	3.818510839471	12690
3	3256	3.832350839471	12831
3	3266	3.846190839471	12972
3	3288	3.860030839471	13113
3	3298	3.873870839471	13254
3	3334	3.915390839471	13395
3	3359	3.956910839471	13536
3	3378	3.970750839471	13677
3	3416	4.039950839471	13818
3	3435	4.053790839471	13959
3	3444	4.095310839471	14100
3	3479	4.122990839471	14241
3	3500	4.164510839471	14382
3	3510	4.178350839471	14523
3	3520	4.192190839471	14664
3	3551	4.206030839471	14805
3	3558	4.219870839471	14946
3	3569	4.247550839471	15087
3	3591	4.261390839471	15228
3	3601	4.275230839471	15369
3	3608	4.289070839471	15510
3	3644	4.302910839471	15651
3	3658	4.316750839471	15792
3	3669	4.344430839471	15933
3	3693	4.358270839471	16074
3	3711	4.372110839471	16215
3	3721	4.385950839471	16356
3	3756	4.413630839471	16497
3	3766	4.427470839471	16638
3	3793	4.482830839471	16779
3	3829	4.524350839471	16920
3	3852	4.552030839471	17061
3	3859	4.565870839471	17202
3	3870	4.593550839471	17343
3	3902	4.621230839471	17484
3	3909	4.635070839471	17625
3	3916	4.648910839471	17766
3	4588	5.620270839471	17907
3	4599	5.647950839471	18048
3	4621	5.661790839471	18189
3	4631	5.675630839471	18330
3	4641	5.689470839471	18471
3	4675	5.703310839471	18612
3	4686	5.730990839471	18753
3	4709	5.758670839471	18894
3	4717	5.786350839471	19035
3	4752	5.814030839471	19176
3	4762	5.827870839471	19317
3	4772	5.841710839471	19458
3	4794	5.855550839471	19599
3	4805	5.883230839471	19740
3	4812	5.897070839471	19881
3	4843	5.910910839471	20022
3	4853	5.924750839471	20163
3	4877	5.952430839471	20304
3	4884	5.966270839471	20445
3	4932	6.007790839471	20586
3	4957	6.063150839471	20727
3	4967	6.076990839471	20868
3	4977	6.090830839471	21009
3	5013	6.104670839471	21150
3	5034	6.118510839471	21291
3	5044	6.132350839471	21432
3	5069	6.187710839471	21573
3	5103	6.201550839471	21714
3	5113	6.215390839471	21855
3	5124	6.243070839471	21996
3	5146	6.256910839471	22137
3	5156	6.270750839471	22278
3	5166	6.284590839471	22419
3	5173	6.298430839471	22560
3	5207	6.312270839471	22701
3	5217	6.326110839471	22842
3	5240	6.353790839471	22983
3	5250	6.367630839471	23124
3	5257	6.381470839471	23265
3	5292	6.409150839471	23406
3	5317	6.464510839471	23547
3	5327	6.478350839471	23688
3	5361	6.506030839471	23829
3	5379	6.519870839471	23970
3	5389	6.533710839471	24111
3	5399	6.547550839471	24252
3	5423	6.561390839471	24393
3	5430	6.575230839471	24534
3	5437	6.589070839471	24675
3	5472	6.616750839471	24816
3	5479	6.630590839471	24957
3	5489	6.644430839471	25098
3	5525	6.672110839471	25239
3	5532	6.685950839471	25380
3	5542	6.699790839471	25521
3	5573	6.713630839471	25662
3	5584	6.741310839471	25803
3	5607	6.768990839471	25944
3	5614	6.782830839471	26085
3	5621	6.796670839471	26226
3	5652	6.810510839471	26367
3	5662	6.824350839471	26508
3	5669	6.838190839471	26649
3	5691	6.852030839471	26790
3	5698	6.865870839471	26931
3	5705	6.879710839471	27072
3	5738	6.921230839471	27213
3	5748	6.935070839471	27354
3	5772	6.976590839471	27495
3	5817	7.018110839471	27636
3	5827	7.031950839471	27777
3	5837	7.045790839471	27918
3	5861	7.059630839471	28059
3	5908	7.101150839471	28200
3	5915	7.114990839471	28341
3	5923	7.142670839471	28482
3	5946	7.156510839471	28623
3	5957	7.184190839471	28764
3	5967	7.198030839471	28905
3	6010	7.211870839471	29046
3	6018	7.225710839471	29187
3	7425	10.388430839471	29328
3	7459	10.402270839471	29469
3	7470	10.429950839471	29610
3	7477	10.443790839471	29751
3	7499	10.457630839471	29892
3	7509	10.471470839471	30033
3	7516	10.485310839471	30174
3	7570	10.526830839471	30315
3	7595	10.582190839471	30456
3	7631	10.623710839471	30597
3	7641	10.637550839471	30738
3	7664	10.665230839471	30879
3	7674	10.679070839471	31020
3	7684	10.692910839471	31161
3	7718	10.706750839471	31302
3	7728	10.720590839471	31443
3	7738	10.734430839471	31584
3	7748	10.748270839471	31725
3	7768	10.775950839471	31866
3	7805	10.831310839471	32007
3	7828	10.858990839471	32148
3	7835	10.872830839471	32289
3	7875	10.914350839471	32430
3	7883	10.942030839471	32571
3	7921	10.997390839471	32712
3	7953	11.025070839471	32853
3	7963	11.038910839471	32994
3	7982	11.052750839471	33135
3	7992	11.066590839471	33276
3	8003	11.094270839471	33417
3	8052	11.135790839471	33558
3	8062	11.149630839471	33699
3	8084	11.163470839471	33840
3	8095	11.191150839471	33981
3	8129	11.204990839471	34122
3	8136	11.218830839471	34263
3	8163	11.260350839471	34404
3	8173	11.274190839471	34545
3	8630	12.020270839471	34686
3	8640	12.034110839471	34827
3	8672	12.061790839471	34968
3	8716	12.103310839471	35109
3	8725	12.130990839471	35250
3	8735	12.144830839471	35391
3	8756	12.186350839471	35532
3	8792	12.200190839471	35673
3	8814	12.227870839471	35814
3	8824	12.241710839471	35955
3	8847	12.269390839471	36096
3	8857	12.283230839471	36237
3	8867	12.297070839471	36378
3	8899	12.324750839471	36519
3	8906	12.338590839471	36660
3	8930	12.352430839471	36801
3	8941	12.366270839471	36942
3	8951	12.380110839471	37083
3	8958	12.393950839471	37224
3	8992	12.407790839471	37365
3	9002	12.421630839471	37506
3	9012	12.435470839471	37647
3	9033	12.476990839471	37788
3	9043	12.490830839471	37929
3	9081	12.504670839471	38070
3	9098	12.518510839471	38211
3	9187	12.538430839471	38352
3	9213	12.573870839471	38493
3	9225	12.593790839471	38634
3	9261	12.601550839471	38775
3	9267	12.607630839471	38916
3	9293	12.621470839471	39057
3	9304	12.635310839471	39198
3	9315	12.649150839471	39339
3	9338	12.656910839471	39480
3	9349	12.662990839471	39621
3	9359	12.670750839471	39762
3	9367	12.684590839471	39903
3	9375	12.698430839471	40044
3	9409	12.704510839471	40185
3	9419	12.712270839471	40326
3	9429	12.732190839471	40467
3	9463	12.773710839471	40608
3	9470	12.787550839471	40749
3	9504	12.801390839471	40890
3	9511	12.815230839471	41031
3	9518	12.829070839471	41172
3	9541	12.856750839471	41313
3	9551	12.870590839471	41454
3	9587	12.912110839471	41595
3	9608	12.953630839471	41736
3	9615	12.967470839471	41877
3	9622	12.981310839471	42018
3	9629	12.995150839471	42159
3	9663	13.008990839471	42300
3	10225	14.242590839471	42441
3	10249	14.256430839471	42582
3	10267	14.270270839471	42723
3	10277	14.284110839471	42864
3	10287	14.297950839471	43005
3	10318	14.311790839471	43146
3	10328	14.325630839471	43287
3	10335	14.339470839471	43428
3	10367	14.367150839471	43569
3	10377	14.380990839471	43710
3	10384	14.394830839471	43851
3	10419	14.422510839471	43992
3	10443	14.464030839471	44133
3	10453	14.477870839471	44274
3	10463	14.491710839471	44415
3	10495	14.519390839471	44556
3	10518	14.588590839471	44697
3	10555	14.643950839471	44838
3	10581	14.657790839471	44979
3	11083	15.728750839471	45120
3	11108	15.784110839471	45261
3	11140	15.811790839471	45402
3	11150	15.825630839471	45543
3	11172	15.853310839471	45684
3	11183	15.867150839471	45825
3	11190	15.880990839471	45966
3	11200	15.894830839471	46107
3	11234	15.908670839471	46248
3	11241	15.922510839471	46389
3	11251	15.936350839471	46530
3	11283	15.964030839471	46671
3	11297	15.977870839471	46812
3	11329	16.005550839471	46953
3	11340	16.033230839471	47094
3	11350	16.047070839471	47235
3	11375	16.060910839471	47376
3	11383	16.088590839471	47517
3	11419	16.102430839471	47658
3	11435	16.130110839471	47799
3	11442	16.143950839471	47940
3	11788	16.692590839471	48081
3	11819	16.706430839471	48222
3	11829	16.720270839471	48363
3	11837	16.747950839471	48504
3	11859	16.761790839471	48645
3	11866	16.775630839471	48786
3	11873	16.789470839471	48927
3	11911	16.803310839471	49068
3	11932	16.817150839471	49209
3	11947	16.830990839471	49350
3	11954	16.844830839471	49491
3	11976	16.858670839471	49632
3	12009	16.900190839471	49773
3	12020	16.927870839471	49914
3	12030	16.941710839471	50055
3	12073	16.969390839471	50196
3	12109	17.010910839471	50337
3	12119	17.024750839471	50478
3	12153	17.080110839471	50619
3	12188	17.107790839471	50760
3	12195	17.121630839471	50901
3	12205	17.135470839471	51042
3	12228	17.163150839471	51183
3	12238	17.176990839471	51324
3	13007	18.842590839471	51465
3	13030	18.870270839471	51606
3	13040	18.884110839471	51747
3	13077	18.939470839471	51888
3	13099	18.953310839471	52029
3	13111	18.994830839471	52170
3	13145	19.008670839471	52311
3	13173	19.077870839471	52452
3	13183	19.091710839471	52593
3	13219	19.105550839471	52734
3	13230	19.119390839471	52875
3	13645	19.928750839471	53016
3	13668	19.956430839471	53157
3	13675	19.970270839471	53298
3	13682	19.984110839471	53439
3	13689	19.997950839471	53580
3	13721	20.025630839471	53721
3	13741	20.053310839471	53862
3	13748	20.067150839471	54003
3	13920	20.328750839471	54144
3	13947	20.384110839471	54285
3	13954	20.397950839471	54426
3	13988	20.411790839471	54567
3	13998	20.425630839471	54708
3	14005	20.439470839471	54849
3	14029	20.453310839471	54990
3	14037	20.467150839471	55131
3	14047	20.480990839471	55272
3	14054	20.494830839471	55413
3	14086	20.522510839471	55554
3	14096	20.536350839471	55695
3	14118	20.550190839471	55836
3	14128	20.564030839471	55977
3	14138	20.577870839471	56118
3	14148	20.591710839471	56259
3	14425	21.092590839471	56400
3	14456	21.106430839471	56541
3	14463	21.120270839471	56682
3	14473	21.134110839471	56823
3	14480	21.147950839471	56964
3	14502	21.161790839471	57105
3	14512	21.175630839471	57246
3	14522	21.189470839471	57387
3	14558	21.203310839471	57528
3	14569	21.217150839471	57669
3	14579	21.230990839471	57810
3	14586	21.244830839471	57951
3	14609	21.272510839471	58092
3	14619	21.286350839471	58233
3	14654	21.327870839471	58374
3	14934	21.928750839471	58515
3	14941	21.942590839471	58656
3	14963	21.956430839471	58797
3	14974	21.984110839471	58938
3	14981	21.997950839471	59079
3	15015	22.011790839471	59220
3	15026	22.039470839471	59361
3	15052	22.053310839471	59502
3	15135	22.094947738403	59643
3	15166	22.108787738403	59784
3	15187	22.150307738403	59925
3	15198	22.177987738403	60066
3	15205	22.191827738403	60207
3	15241	22.205667738403	60348
3	15250	22.233347738403	60489
3	15273	22.261027738403	60630
3	15284	22.288707738403	60771
3	15318	22.302547738403	60912
3	15341	22.371747738403	61053
3	15351	22.385587738403	61194
3	15361	22.399427738403	61335
3	15542	22.688430839471	61476
3	15573	22.702270839471	61617
3	15580	22.716110839471	61758
3	15591	22.743790839471	61899
3	15614	22.771470839471	62040
3	15624	22.785310839471	62181
3	15634	22.799150839471	62322
3	15865	23.238430839471	62463
3	15887	23.252270839471	62604
3	15898	23.279950839471	62745
3	15905	23.293790839471	62886
3	16184	23.870270839471	63027
3	16842	25.428750839471	63168
3	16852	25.442590839471	63309
3	17109	25.978750839471	63450
3	17536	26.978750839471	63591
3	17546	26.992590839471	63732
3	17582	27.006430839471	63873
3	18492	29.092590839471	64014
3	18524	29.120270839471	64155
3	18535	29.147950839471	64296
3	18558	29.175630839471	64437
3	18565	29.189470839471	64578
3	18609	29.217150839471	64719
3	18616	29.230990839471	64860
3	18626	29.244830839471	65001
3	18648	29.258670839471	65142
3	18655	29.272510839471	65283
3	18665	29.286350839471	65424
3	18701	29.300190839471	65565
3	18724	29.341710839471	65706
3	18746	29.355550839471	65847
3	18757	29.383230839471	65988
3	18924	29.642590839471	66129
3	18948	29.656430839471	66270
3	18956	29.670270839471	66411
3	18963	29.684110839471	66552
3	18998	29.711790839471	66693
3	19009	29.739470839471	66834
3	19033	29.753310839471	66975
3	19047	29.767150839471	67116
3	19058	29.794830839471	67257
3	19275	30.178750839471	67398
3	19307	30.206430839471	67539
3	19317	30.220270839471	67680
3	19327	30.234110839471	67821
3	19576	30.728750839471	67962
3	19586	30.742590839471	68103
3	19608	30.756430839471	68244
3	19849	31.278750839471	68385

