version 2
run C-0-20190919-00:58:46-7598
attr configname C
attr datetime 20190919-00:58:46
attr experiment C
attr inifile SimV2.ini
attr iterationvars ""
attr iterationvarsf ""
attr measurement ""
attr network NetworkTormV2
attr processid 7598
attr repetition 0
attr replication #0
attr resultdir results
attr runnumber 0
attr seedset 0
param **.mobility.traceFile "\"paths/C.movements\""
param **.numNodes 4
param **.wirelessIfc.wirelessRange 40m
param **.bluetoothIfc.wirelessRange 40m
param **.application.usedRNG 1
param **.application.dataGenerationInterval 1s
param **.application.dataSizeInBytes 10
param **.application.ttl 999999s
param **application.destinationAddr "\"Wf:00:00:00:00:02\""
param **application.destinationBTAddr "\"Bt:00:00:00:00:02\""
param **application.nodesThatGen true
param **application.nodesGenMsg "\"0,1,3\""
param **application.startMultipleMsg false
param **application.numMultipleMsg 100
param **application.hopsListSize 50
param **.application.endGeneratingMsg 90s
param **.numNodes 2
param **.application.usedRNG 1
param **.application.dataGenerationInterval 1ms
param **.application.dataSizeInBytes 10
param **.application.ttl 999999s
param **application.destinationAddr "\"Wf:00:00:00:00:02\""
param **application.destinationBTAddr "\"Bt:00:00:00:00:02\""
param **application.nodesThatGen true
param **application.nodesGenMsg "\"0\""
param **application.startMultipleMsg true
param **application.numMultipleMsg 100
param **application.hopsListSize 50
param **.application.endGeneratingMsg 999999s
param **.routingLayer "\"RoutingLayer\""
param **.routing.maximumCacheSize 5000byte
param **.routing.maximumHopCount 25
param **.routing.useTTL false
param **.routing.waitBFsend 0.5
param **.routing.max_age 999999s
param **.neighboring.antiEntropyInterval 500ms
param **.neighboring.maximumRandomBackoffDuration 1s
param **.neighboring.delayPerDataMsg 0.1
param **neighboring.usedRNG 2
param **.neighboring.GWAddr "\"Wf:00:00:00:00:02\""
param **.neighboring.sendWifiFirst true
param **.neighboring.maxLengthGraph 20
param **.neighboring.max_age 999999s
param **.neighboring.max_absent_time 1s
param **.wirelessIfc.wirelessRange 15m
param **.wirelessIfc.neighbourScanInterval 50ms
param **.wirelessIfc.bandwidthBitRate 100000bps
param **.wirelessIfc.wirelessHeaderSize 32byte
param **.wirelessIfc.minSSI -90
param **.wirelessIfc.limitQueueTime 400ms
param **.bluetoothIfc.wirelessRange 15m
param **.bluetoothIfc.neighbourScanInterval 100ms
param **.bluetoothIfc.bandwidthBitRate 100000bps
param **.bluetoothIfc.wirelessHeaderSize 16byte
param **.bluetoothIfc.minSSI -90
param **.mobilityType "\"BonnMotionMobility\""
param **.mobility.traceFile "\"paths/Moves2.movements\""
param **.mobility.is3D false
param **.mobility.nodeId -1

vector 0 NetworkTormV2 neighbourhoodSize:vector ETV
attr source neighbourhoodSize
vector 1 NetworkTormV2 deliveryRatio:vector ETV
attr source sum(totalDataBytesReceived)/sum(totalDataBytesReceivableByAllNodes)
vector 2 NetworkTormV2 dataBytesReceivedSum:vector ETV
attr source sum(dataBytesReceived)
vector 3 NetworkTormV2 totalBytesReceivedSum:vector ETV
attr source sum(totalBytesReceived)
0	13	0.05	3
0	14	0.05	3
0	15	0.05	3
0	16	0.05	3
0	26	0.1	3
0	28	0.1	3
0	29	0.1	3
0	31	0.1	3
0	36	0.1	3
0	37	0.1	3
0	38	0.1	3
0	39	0.1	3
0	59	0.15	3
0	60	0.15	3
0	61	0.15	3
0	62	0.15	3
0	71	0.2	3
0	72	0.2	3
0	73	0.2	3
0	74	0.2	3
0	79	0.2	3
0	80	0.2	3
0	81	0.2	3
0	82	0.2	3
0	99	0.25	3
0	100	0.25	3
0	101	0.25	3
0	102	0.25	3
0	111	0.3	3
0	112	0.3	3
0	113	0.3	3
0	114	0.3	3
0	119	0.3	3
0	120	0.3	3
0	121	0.3	3
0	122	0.3	3
0	139	0.35	3
0	140	0.35	3
0	141	0.35	3
0	142	0.35	3
0	151	0.4	3
0	152	0.4	3
0	153	0.4	3
0	154	0.4	3
0	159	0.4	3
0	160	0.4	3
0	161	0.4	3
0	162	0.4	3
0	179	0.45	3
0	180	0.45	3
0	181	0.45	3
0	182	0.45	3
0	191	0.5	3
0	192	0.5	3
0	193	0.5	3
0	194	0.5	3
0	199	0.5	3
0	200	0.5	3
0	201	0.5	3
0	202	0.5	3
0	219	0.55	3
0	220	0.55	3
0	221	0.55	3
0	222	0.55	3
0	231	0.6	3
0	232	0.6	3
0	233	0.6	3
0	234	0.6	3
0	239	0.6	3
0	240	0.6	3
0	241	0.6	3
0	242	0.6	3
0	259	0.65	3
0	260	0.65	3
0	261	0.65	3
0	262	0.65	3
0	271	0.7	3
0	272	0.7	3
0	273	0.7	3
0	274	0.7	3
0	279	0.7	3
0	280	0.7	3
0	281	0.7	3
0	282	0.7	3
0	299	0.75	3
0	300	0.75	3
0	301	0.75	3
0	302	0.75	3
0	311	0.8	3
0	312	0.8	3
0	313	0.8	3
0	314	0.8	3
0	319	0.8	3
0	320	0.8	3
0	321	0.8	3
0	322	0.8	3
0	339	0.85	3
0	340	0.85	3
0	341	0.85	3
0	342	0.85	3
0	351	0.9	3
0	352	0.9	3
0	353	0.9	3
0	354	0.9	3
0	359	0.9	3
0	360	0.9	3
0	361	0.9	3
0	362	0.9	3
0	379	0.95	3
0	380	0.95	3
0	381	0.95	3
0	382	0.95	3
0	391	1	3
0	392	1	3
0	393	1	3
0	394	1	3
0	399	1	3
0	400	1	3
0	401	1	3
0	402	1	3
0	419	1.05	3
0	420	1.05	3
0	421	1.05	3
0	422	1.05	3
0	434	1.1	3
0	435	1.1	3
0	436	1.1	3
0	437	1.1	3
0	442	1.1	3
0	443	1.1	3
0	444	1.1	3
0	445	1.1	3
0	633	1.15	3
0	634	1.15	3
0	635	1.15	3
0	636	1.15	3
0	705	1.2	3
0	706	1.2	3
0	707	1.2	3
0	708	1.2	3
0	713	1.2	3
0	714	1.2	3
0	715	1.2	3
0	716	1.2	3
0	733	1.25	3
0	734	1.25	3
0	735	1.25	3
0	736	1.25	3
0	745	1.3	3
0	746	1.3	3
0	747	1.3	3
0	748	1.3	3
0	753	1.3	3
0	754	1.3	3
0	755	1.3	3
0	756	1.3	3
0	773	1.35	3
0	774	1.35	3
0	775	1.35	3
0	776	1.35	3
0	785	1.4	3
0	786	1.4	3
0	787	1.4	3
0	788	1.4	3
0	793	1.4	3
0	794	1.4	3
0	795	1.4	3
0	796	1.4	3
0	813	1.45	3
0	814	1.45	3
0	815	1.45	3
0	816	1.45	3
0	825	1.5	3
0	826	1.5	3
0	827	1.5	3
0	828	1.5	3
0	833	1.5	3
0	834	1.5	3
0	835	1.5	3
0	836	1.5	3
0	853	1.55	3
0	854	1.55	3
0	855	1.55	3
0	856	1.55	3
0	865	1.6	3
0	866	1.6	3
0	867	1.6	3
0	868	1.6	3
0	873	1.6	3
0	874	1.6	3
0	875	1.6	3
0	876	1.6	3
0	893	1.65	3
0	894	1.65	3
0	895	1.65	3
0	896	1.65	3
0	1061	1.7	3
0	1062	1.7	3
0	1063	1.7	3
0	1064	1.7	3
0	1069	1.7	3
0	1070	1.7	3
0	1071	1.7	3
0	1072	1.7	3
0	1089	1.75	3
0	1090	1.75	3
0	1091	1.75	3
0	1092	1.75	3
0	1101	1.8	3
0	1102	1.8	3
0	1103	1.8	3
0	1104	1.8	3
0	1109	1.8	3
0	1110	1.8	3
0	1111	1.8	3
0	1112	1.8	3
0	1129	1.85	3
0	1130	1.85	3
0	1131	1.85	3
0	1132	1.85	3
0	1141	1.9	3
0	1142	1.9	3
0	1143	1.9	3
0	1144	1.9	3
0	1149	1.9	3
0	1150	1.9	3
0	1151	1.9	3
0	1152	1.9	3
0	1169	1.95	3
0	1170	1.95	3
0	1171	1.95	3
0	1172	1.95	3
0	1181	2	3
0	1182	2	3
0	1183	2	3
0	1184	2	3
0	1189	2	3
0	1190	2	3
0	1191	2	3
0	1192	2	3
0	1209	2.05	3
0	1210	2.05	3
0	1211	2.05	3
0	1212	2.05	3
0	1224	2.1	3
0	1225	2.1	3
0	1226	2.1	3
0	1227	2.1	3
0	1232	2.1	3
0	1233	2.1	3
0	1234	2.1	3
0	1235	2.1	3
0	1255	2.15	3
0	1256	2.15	3
0	1257	2.15	3
0	1258	2.15	3
0	1267	2.2	3
0	1268	2.2	3
0	1269	2.2	3
0	1270	2.2	3
0	1275	2.2	3
0	1276	2.2	3
0	1277	2.2	3
0	1278	2.2	3
0	1457	2.25	3
0	1458	2.25	3
0	1459	2.25	3
0	1460	2.25	3
0	1499	2.3	3
0	1500	2.3	3
0	1501	2.3	3
0	1502	2.3	3
0	1507	2.3	3
0	1508	2.3	3
0	1509	2.3	3
0	1510	2.3	3
0	1527	2.35	3
0	1528	2.35	3
0	1529	2.35	3
0	1530	2.35	3
0	1539	2.4	3
0	1540	2.4	3
0	1541	2.4	3
0	1542	2.4	3
0	1547	2.4	3
0	1548	2.4	3
0	1549	2.4	3
0	1550	2.4	3
0	1567	2.45	3
0	1568	2.45	3
0	1569	2.45	3
0	1570	2.45	3
0	1579	2.5	3
0	1580	2.5	3
0	1581	2.5	3
0	1582	2.5	3
0	1587	2.5	3
0	1588	2.5	3
0	1589	2.5	3
0	1590	2.5	3
0	1607	2.55	3
0	1608	2.55	3
0	1609	2.55	3
0	1610	2.55	3
0	1619	2.6	3
0	1620	2.6	3
0	1621	2.6	3
0	1622	2.6	3
0	1627	2.6	3
0	1628	2.6	3
0	1629	2.6	3
0	1630	2.6	3
0	1647	2.65	3
0	1648	2.65	3
0	1649	2.65	3
0	1650	2.65	3
0	1659	2.7	3
0	1660	2.7	3
0	1661	2.7	3
0	1662	2.7	3
0	1667	2.7	3
0	1668	2.7	3
0	1669	2.7	3
0	1670	2.7	3
0	1687	2.75	3
0	1688	2.75	3
0	1689	2.75	3
0	1690	2.75	3
0	1855	2.8	3
0	1856	2.8	3
0	1857	2.8	3
0	1858	2.8	3
0	1863	2.8	3
0	1864	2.8	3
0	1865	2.8	3
0	1866	2.8	3
0	1883	2.85	3
0	1884	2.85	3
0	1885	2.85	3
0	1886	2.85	3
0	1895	2.9	3
0	1896	2.9	3
0	1897	2.9	3
0	1898	2.9	3
0	1903	2.9	3
0	1904	2.9	3
0	1905	2.9	3
0	1906	2.9	3
0	1923	2.95	3
0	1924	2.95	3
0	1925	2.95	3
0	1926	2.95	3
0	1935	3	3
0	1936	3	3
0	1937	3	3
0	1938	3	3
0	1943	3	3
0	1944	3	3
0	1945	3	3
0	1946	3	3
0	1963	3.05	3
0	1964	3.05	3
0	1965	3.05	3
0	1966	3.05	3
0	1978	3.1	3
0	1979	3.1	3
0	1980	3.1	3
0	1981	3.1	3
0	1986	3.1	3
0	1987	3.1	3
0	1988	3.1	3
0	1989	3.1	3
0	2009	3.15	3
0	2010	3.15	3
0	2011	3.15	3
0	2012	3.15	3
0	2021	3.2	3
0	2022	3.2	3
0	2023	3.2	3
0	2024	3.2	3
0	2029	3.2	3
0	2030	3.2	3
0	2031	3.2	3
0	2032	3.2	3
0	2049	3.25	3
0	2050	3.25	3
0	2051	3.25	3
0	2052	3.25	3
0	2061	3.3	3
0	2062	3.3	3
0	2063	3.3	3
0	2064	3.3	3
0	2069	3.3	3
0	2070	3.3	3
0	2071	3.3	3
0	2072	3.3	3
0	2251	3.35	3
0	2252	3.35	3
0	2253	3.35	3
0	2254	3.35	3
0	2293	3.4	3
0	2294	3.4	3
0	2295	3.4	3
0	2296	3.4	3
0	2301	3.4	3
0	2302	3.4	3
0	2303	3.4	3
0	2304	3.4	3
0	2321	3.45	3
0	2322	3.45	3
0	2323	3.45	3
0	2324	3.45	3
0	2333	3.5	3
0	2334	3.5	3
0	2335	3.5	3
0	2336	3.5	3
0	2341	3.5	3
0	2342	3.5	3
0	2343	3.5	3
0	2344	3.5	3
0	2361	3.55	3
0	2362	3.55	3
0	2363	3.55	3
0	2364	3.55	3
0	2373	3.6	3
0	2374	3.6	3
0	2375	3.6	3
0	2376	3.6	3
0	2381	3.6	3
0	2382	3.6	3
0	2383	3.6	3
0	2384	3.6	3
0	2401	3.65	3
0	2402	3.65	3
0	2403	3.65	3
0	2404	3.65	3
0	2413	3.7	3
0	2414	3.7	3
0	2415	3.7	3
0	2416	3.7	3
0	2421	3.7	3
0	2422	3.7	3
0	2423	3.7	3
0	2424	3.7	3
0	2441	3.75	3
0	2442	3.75	3
0	2443	3.75	3
0	2444	3.75	3
0	2453	3.8	3
0	2454	3.8	3
0	2455	3.8	3
0	2456	3.8	3
0	2461	3.8	3
0	2462	3.8	3
0	2463	3.8	3
0	2464	3.8	3
0	2481	3.85	3
0	2482	3.85	3
0	2483	3.85	3
0	2484	3.85	3
0	2649	3.9	3
0	2650	3.9	3
0	2651	3.9	3
0	2652	3.9	3
0	2657	3.9	3
0	2658	3.9	3
0	2659	3.9	3
0	2660	3.9	3
0	2677	3.95	3
0	2678	3.95	3
0	2679	3.95	3
0	2680	3.95	3
0	2689	4	3
0	2690	4	3
0	2691	4	3
0	2692	4	3
0	2697	4	3
0	2698	4	3
0	2699	4	3
0	2700	4	3
0	2717	4.05	3
0	2718	4.05	3
0	2719	4.05	3
0	2720	4.05	3
0	2732	4.1	3
0	2733	4.1	3
0	2734	4.1	3
0	2735	4.1	3
0	2740	4.1	3
0	2741	4.1	3
0	2742	4.1	3
0	2743	4.1	3
0	2763	4.15	3
0	2764	4.15	3
0	2765	4.15	3
0	2766	4.15	3
0	2775	4.2	3
0	2776	4.2	3
0	2777	4.2	3
0	2778	4.2	3
0	2783	4.2	3
0	2784	4.2	3
0	2785	4.2	3
0	2786	4.2	3
0	2803	4.25	3
0	2804	4.25	3
0	2805	4.25	3
0	2806	4.25	3
0	2815	4.3	3
0	2816	4.3	3
0	2817	4.3	3
0	2818	4.3	3
0	2823	4.3	3
0	2824	4.3	3
0	2825	4.3	3
0	2826	4.3	3
0	2843	4.35	3
0	2844	4.35	3
0	2845	4.35	3
0	2846	4.35	3
0	2855	4.4	3
0	2856	4.4	3
0	2857	4.4	3
0	2858	4.4	3
0	2863	4.4	3
0	2864	4.4	3
0	2865	4.4	3
0	2866	4.4	3
0	3045	4.45	3
0	3046	4.45	3
0	3047	4.45	3
0	3048	4.45	3
0	3087	4.5	3
0	3088	4.5	3
0	3089	4.5	3
0	3090	4.5	3
0	3095	4.5	3
0	3096	4.5	3
0	3097	4.5	3
0	3098	4.5	3
0	3115	4.55	3
0	3116	4.55	3
0	3117	4.55	3
0	3118	4.55	3
0	3127	4.6	3
0	3128	4.6	3
0	3129	4.6	3
0	3130	4.6	3
0	3135	4.6	3
0	3136	4.6	3
0	3137	4.6	3
0	3138	4.6	3
0	3155	4.65	3
0	3156	4.65	3
0	3157	4.65	3
0	3158	4.65	3
0	3167	4.7	3
0	3168	4.7	3
0	3169	4.7	3
0	3170	4.7	3
0	3175	4.7	3
0	3176	4.7	3
0	3177	4.7	3
0	3178	4.7	3
0	3195	4.75	3
0	3196	4.75	3
0	3197	4.75	3
0	3198	4.75	3
0	3207	4.8	3
0	3208	4.8	3
0	3209	4.8	3
0	3210	4.8	3
0	3215	4.8	3
0	3216	4.8	3
0	3217	4.8	3
0	3218	4.8	3
0	3235	4.85	3
0	3236	4.85	3
0	3237	4.85	3
0	3238	4.85	3
0	3247	4.9	3
0	3248	4.9	3
0	3249	4.9	3
0	3250	4.9	3
0	3255	4.9	3
0	3256	4.9	3
0	3257	4.9	3
0	3258	4.9	3
0	3275	4.95	3
0	3276	4.95	3
0	3277	4.95	3
0	3278	4.95	3
0	3443	5	3
0	3444	5	3
0	3445	5	3
0	3446	5	3
0	3451	5	3
0	3452	5	3
0	3453	5	3
0	3454	5	3
0	3471	5.05	3
0	3472	5.05	3
0	3473	5.05	3
0	3474	5.05	3
0	3486	5.1	3
0	3487	5.1	3
0	3488	5.1	3
0	3489	5.1	3
0	3494	5.1	3
0	3495	5.1	3
0	3496	5.1	3
0	3497	5.1	3
0	3517	5.15	3
0	3518	5.15	3
0	3519	5.15	3
0	3520	5.15	3
0	3529	5.2	3
0	3530	5.2	3
0	3531	5.2	3
0	3532	5.2	3
0	3537	5.2	3
0	3538	5.2	3
0	3539	5.2	3
0	3540	5.2	3
0	3557	5.25	3
0	3558	5.25	3
0	3559	5.25	3
0	3560	5.25	3
0	3569	5.3	3
0	3570	5.3	3
0	3571	5.3	3
0	3572	5.3	3
0	3577	5.3	3
0	3578	5.3	3
0	3579	5.3	3
0	3580	5.3	3
0	3597	5.35	3
0	3598	5.35	3
0	3599	5.35	3
0	3600	5.35	3
0	3609	5.4	3
0	3610	5.4	3
0	3611	5.4	3
0	3612	5.4	3
0	3617	5.4	3
0	3618	5.4	3
0	3619	5.4	3
0	3620	5.4	3
0	3637	5.45	3
0	3638	5.45	3
0	3639	5.45	3
0	3640	5.45	3
0	3649	5.5	3
0	3650	5.5	3
0	3651	5.5	3
0	3652	5.5	3
0	3657	5.5	3
0	3658	5.5	3
0	3659	5.5	3
0	3660	5.5	3
0	3839	5.55	3
0	3840	5.55	3
0	3841	5.55	3
0	3842	5.55	3
0	3881	5.6	3
0	3882	5.6	3
0	3883	5.6	3
0	3884	5.6	3
0	3889	5.6	3
0	3890	5.6	3
0	3891	5.6	3
0	3892	5.6	3
0	3909	5.65	3
0	3910	5.65	3
0	3911	5.65	3
0	3912	5.65	3
0	3921	5.7	3
0	3922	5.7	3
0	3923	5.7	3
0	3924	5.7	3
0	3929	5.7	3
0	3930	5.7	3
0	3931	5.7	3
0	3932	5.7	3
0	3949	5.75	3
0	3950	5.75	3
0	3951	5.75	3
0	3952	5.75	3
0	3961	5.8	3
0	3962	5.8	3
0	3963	5.8	3
0	3964	5.8	3
0	3969	5.8	3
0	3970	5.8	3
0	3971	5.8	3
0	3972	5.8	3
0	3989	5.85	3
0	3990	5.85	3
0	3991	5.85	3
0	3992	5.85	3
0	4001	5.9	3
0	4002	5.9	3
0	4003	5.9	3
0	4004	5.9	3
0	4009	5.9	3
0	4010	5.9	3
0	4011	5.9	3
0	4012	5.9	3
0	4029	5.95	3
0	4030	5.95	3
0	4031	5.95	3
0	4032	5.95	3
0	4041	6	3
0	4042	6	3
0	4043	6	3
0	4044	6	3
0	4049	6	3
0	4050	6	3
0	4051	6	3
0	4052	6	3
0	4069	6.05	3
0	4070	6.05	3
0	4071	6.05	3
0	4072	6.05	3
0	4240	6.1	3
0	4241	6.1	3
0	4242	6.1	3
0	4243	6.1	3
0	4248	6.1	3
0	4249	6.1	3
0	4250	6.1	3
0	4251	6.1	3
0	4271	6.15	3
0	4272	6.15	3
0	4273	6.15	3
0	4274	6.15	3
0	4283	6.2	3
0	4284	6.2	3
0	4285	6.2	3
0	4286	6.2	3
0	4291	6.2	3
0	4292	6.2	3
0	4293	6.2	3
0	4294	6.2	3
0	4311	6.25	3
0	4312	6.25	3
0	4313	6.25	3
0	4314	6.25	3
0	4323	6.3	3
0	4324	6.3	3
0	4325	6.3	3
0	4326	6.3	3
0	4331	6.3	3
0	4332	6.3	3
0	4333	6.3	3
0	4334	6.3	3
0	4351	6.35	3
0	4352	6.35	3
0	4353	6.35	3
0	4354	6.35	3
0	4363	6.4	3
0	4364	6.4	3
0	4365	6.4	3
0	4366	6.4	3
0	4371	6.4	3
0	4372	6.4	3
0	4373	6.4	3
0	4374	6.4	3
0	4391	6.45	3
0	4392	6.45	3
0	4393	6.45	3
0	4394	6.45	3
0	4403	6.5	3
0	4404	6.5	3
0	4405	6.5	3
0	4406	6.5	3
0	4411	6.5	3
0	4412	6.5	3
0	4413	6.5	3
0	4414	6.5	3
0	4431	6.55	3
0	4432	6.55	3
0	4433	6.55	3
0	4434	6.55	3
0	4443	6.6	3
0	4444	6.6	3
0	4445	6.6	3
0	4446	6.6	3
0	4451	6.6	3
0	4452	6.6	3
0	4453	6.6	3
0	4454	6.6	3
0	4633	6.65	3
0	4634	6.65	3
0	4635	6.65	3
0	4636	6.65	3
0	4675	6.7	3
0	4676	6.7	3
0	4677	6.7	3
0	4678	6.7	3
0	4683	6.7	3
0	4684	6.7	3
0	4685	6.7	3
0	4686	6.7	3
0	4703	6.75	3
0	4704	6.75	3
0	4705	6.75	3
0	4706	6.75	3
0	4715	6.8	3
0	4716	6.8	3
0	4717	6.8	3
0	4718	6.8	3
0	4723	6.8	3
0	4724	6.8	3
0	4725	6.8	3
0	4726	6.8	3
0	4743	6.85	3
0	4744	6.85	3
0	4745	6.85	3
0	4746	6.85	3
0	4755	6.9	3
0	4756	6.9	3
0	4757	6.9	3
0	4758	6.9	3
0	4763	6.9	3
0	4764	6.9	3
0	4765	6.9	3
0	4766	6.9	3
0	4783	6.95	3
0	4784	6.95	3
0	4785	6.95	3
0	4786	6.95	3
0	4795	7	3
0	4796	7	3
0	4797	7	3
0	4798	7	3
0	4803	7	3
0	4804	7	3
0	4805	7	3
0	4806	7	3
0	4823	7.05	3
0	4824	7.05	3
0	4825	7.05	3
0	4826	7.05	3
0	4838	7.1	3
0	4839	7.1	3
0	4840	7.1	3
0	4841	7.1	3
0	4846	7.1	3
0	4847	7.1	3
0	4848	7.1	3
0	4849	7.1	3
0	4869	7.15	3
0	4870	7.15	3
0	4871	7.15	3
0	4872	7.15	3
0	5043	7.2	3
0	5044	7.2	3
0	5045	7.2	3
0	5046	7.2	3
0	5051	7.2	3
0	5052	7.2	3
0	5053	7.2	3
0	5054	7.2	3
0	5101	7.25	3
0	5102	7.25	3
0	5103	7.25	3
0	5104	7.25	3
0	5113	7.3	3
0	5114	7.3	3
0	5115	7.3	3
0	5116	7.3	3
0	5121	7.3	3
0	5122	7.3	3
0	5123	7.3	3
0	5124	7.3	3
0	5141	7.35	3
0	5142	7.35	3
0	5143	7.35	3
0	5144	7.35	3
0	5153	7.4	3
0	5154	7.4	3
0	5155	7.4	3
0	5156	7.4	3
0	5161	7.4	3
0	5162	7.4	3
0	5163	7.4	3
0	5164	7.4	3
0	5181	7.45	3
0	5182	7.45	3
0	5183	7.45	3
0	5184	7.45	3
0	5193	7.5	3
0	5194	7.5	3
0	5195	7.5	3
0	5196	7.5	3
0	5201	7.5	3
0	5202	7.5	3
0	5203	7.5	3
0	5204	7.5	3
0	5221	7.55	3
0	5222	7.55	3
0	5223	7.55	3
0	5224	7.55	3
0	5233	7.6	3
0	5234	7.6	3
0	5235	7.6	3
0	5236	7.6	3
0	5241	7.6	3
0	5242	7.6	3
0	5243	7.6	3
0	5244	7.6	3
0	5261	7.65	3
0	5262	7.65	3
0	5263	7.65	3
0	5264	7.65	3
0	5273	7.7	3
0	5274	7.7	3
0	5275	7.7	3
0	5276	7.7	3
0	5281	7.7	3
0	5282	7.7	3
0	5283	7.7	3
0	5284	7.7	3
0	5457	7.75	3
0	5458	7.75	3
0	5459	7.75	3
0	5460	7.75	3
0	5469	7.8	3
0	5470	7.8	3
0	5471	7.8	3
0	5472	7.8	3
0	5477	7.8	3
0	5478	7.8	3
0	5479	7.8	3
0	5480	7.8	3
0	5497	7.85	3
0	5498	7.85	3
0	5499	7.85	3
0	5500	7.85	3
0	5509	7.9	3
0	5510	7.9	3
0	5511	7.9	3
0	5512	7.9	3
0	5517	7.9	3
0	5518	7.9	3
0	5519	7.9	3
0	5520	7.9	3
0	5537	7.95	3
0	5538	7.95	3
0	5539	7.95	3
0	5540	7.95	3
0	5549	8	3
0	5550	8	3
0	5551	8	3
0	5552	8	3
0	5557	8	3
0	5558	8	3
0	5559	8	3
0	5560	8	3
0	5577	8.05	3
0	5578	8.05	3
0	5579	8.05	3
0	5580	8.05	3
0	5592	8.1	3
0	5593	8.1	3
0	5594	8.1	3
0	5595	8.1	3
0	5600	8.1	3
0	5601	8.1	3
0	5602	8.1	3
0	5603	8.1	3
0	5623	8.15	3
0	5624	8.15	3
0	5625	8.15	3
0	5626	8.15	3
0	5635	8.2	3
0	5636	8.2	3
0	5637	8.2	3
0	5638	8.2	3
0	5643	8.2	3
0	5644	8.2	3
0	5645	8.2	3
0	5646	8.2	3
0	5663	8.25	3
0	5664	8.25	3
0	5665	8.25	3
0	5666	8.25	3
0	5837	8.3	3
0	5838	8.3	3
0	5839	8.3	3
0	5840	8.3	3
0	5845	8.3	3
0	5846	8.3	3
0	5847	8.3	3
0	5848	8.3	3
0	5895	8.35	3
0	5896	8.35	3
0	5897	8.35	3
0	5898	8.35	3
0	5907	8.4	3
0	5908	8.4	3
0	5909	8.4	3
0	5910	8.4	3
0	5915	8.4	3
0	5916	8.4	3
0	5917	8.4	3
0	5918	8.4	3
0	5935	8.45	3
0	5936	8.45	3
0	5937	8.45	3
0	5938	8.45	3
0	5947	8.5	3
0	5948	8.5	3
0	5949	8.5	3
0	5950	8.5	3
0	5955	8.5	3
0	5956	8.5	3
0	5957	8.5	3
0	5958	8.5	3
0	5975	8.55	3
0	5976	8.55	3
0	5977	8.55	3
0	5978	8.55	3
0	5987	8.6	3
0	5988	8.6	3
0	5989	8.6	3
0	5990	8.6	3
0	5995	8.6	3
0	5996	8.6	3
0	5997	8.6	3
0	5998	8.6	3
0	6015	8.65	3
0	6016	8.65	3
0	6017	8.65	3
0	6018	8.65	3
0	6027	8.7	3
0	6028	8.7	3
0	6029	8.7	3
0	6030	8.7	3
0	6035	8.7	3
0	6036	8.7	3
0	6037	8.7	3
0	6038	8.7	3
0	6055	8.75	3
0	6056	8.75	3
0	6057	8.75	3
0	6058	8.75	3
0	6067	8.8	3
0	6068	8.8	3
0	6069	8.8	3
0	6070	8.8	3
0	6075	8.8	3
0	6076	8.8	3
0	6077	8.8	3
0	6078	8.8	3
0	6251	8.85	3
0	6252	8.85	3
0	6253	8.85	3
0	6254	8.85	3
0	6263	8.9	3
0	6264	8.9	3
0	6265	8.9	3
0	6266	8.9	3
0	6271	8.9	3
0	6272	8.9	3
0	6273	8.9	3
0	6274	8.9	3
0	6291	8.95	3
0	6292	8.95	3
0	6293	8.95	3
0	6294	8.95	3
0	6303	9	3
0	6304	9	3
0	6305	9	3
0	6306	9	3
0	6311	9	3
0	6312	9	3
0	6313	9	3
0	6314	9	3
0	6331	9.05	3
0	6332	9.05	3
0	6333	9.05	3
0	6334	9.05	3
0	6346	9.1	3
0	6347	9.1	3
0	6348	9.1	3
0	6349	9.1	3
0	6354	9.1	3
0	6355	9.1	3
0	6356	9.1	3
0	6357	9.1	3
0	6377	9.15	3
0	6378	9.15	3
0	6379	9.15	3
0	6380	9.15	3
0	6389	9.2	3
0	6390	9.2	3
0	6391	9.2	3
0	6392	9.2	3
0	6397	9.2	3
0	6398	9.2	3
0	6399	9.2	3
0	6400	9.2	3
0	6417	9.25	3
0	6418	9.25	3
0	6419	9.25	3
0	6420	9.25	3
0	6429	9.3	3
0	6430	9.3	3
0	6431	9.3	3
0	6432	9.3	3
0	6437	9.3	3
0	6438	9.3	3
0	6439	9.3	3
0	6440	9.3	3
0	6457	9.35	3
0	6458	9.35	3
0	6459	9.35	3
0	6460	9.35	3
0	6631	9.4	3
0	6632	9.4	3
0	6633	9.4	3
0	6634	9.4	3
0	6639	9.4	3
0	6640	9.4	3
0	6641	9.4	3
0	6642	9.4	3
0	6689	9.45	3
0	6690	9.45	3
0	6691	9.45	3
0	6692	9.45	3
0	6701	9.5	3
0	6702	9.5	3
0	6703	9.5	3
0	6704	9.5	3
0	6709	9.5	3
0	6710	9.5	3
0	6711	9.5	3
0	6712	9.5	3
0	6729	9.55	3
0	6730	9.55	3
0	6731	9.55	3
0	6732	9.55	3
0	6741	9.6	3
0	6742	9.6	3
0	6743	9.6	3
0	6744	9.6	3
0	6749	9.6	3
0	6750	9.6	3
0	6751	9.6	3
0	6752	9.6	3
0	6769	9.65	3
0	6770	9.65	3
0	6771	9.65	3
0	6772	9.65	3
0	6781	9.7	3
0	6782	9.7	3
0	6783	9.7	3
0	6784	9.7	3
0	6789	9.7	3
0	6790	9.7	3
0	6791	9.7	3
0	6792	9.7	3
0	6809	9.75	3
0	6810	9.75	3
0	6811	9.75	3
0	6812	9.75	3
0	6821	9.8	3
0	6822	9.8	3
0	6823	9.8	3
0	6824	9.8	3
0	6829	9.8	3
0	6830	9.8	3
0	6831	9.8	3
0	6832	9.8	3
0	6849	9.85	3
0	6850	9.85	3
0	6851	9.85	3
0	6852	9.85	3
0	6861	9.9	3
0	6862	9.9	3
0	6863	9.9	3
0	6864	9.9	3
0	6869	9.9	3
0	6870	9.9	3
0	6871	9.9	3
0	6872	9.9	3
0	7045	9.95	3
0	7046	9.95	3
0	7047	9.95	3
0	7048	9.95	3
0	7057	10	3
0	7058	10	3
0	7059	10	3
0	7060	10	3
0	7065	10	3
0	7066	10	3
0	7067	10	3
0	7068	10	3
0	7085	10.05	3
0	7086	10.05	3
0	7087	10.05	3
0	7088	10.05	3
0	7100	10.1	3
0	7101	10.1	3
0	7102	10.1	3
0	7103	10.1	3
0	7108	10.1	3
0	7109	10.1	3
0	7110	10.1	3
0	7111	10.1	3
0	7131	10.15	3
0	7132	10.15	3
0	7133	10.15	3
0	7134	10.15	3
0	7143	10.2	3
0	7144	10.2	3
0	7145	10.2	3
0	7146	10.2	3
0	7151	10.2	3
0	7152	10.2	3
0	7153	10.2	3
0	7154	10.2	3
0	7171	10.25	3
0	7172	10.25	3
0	7173	10.25	3
0	7174	10.25	3
0	7183	10.3	3
0	7184	10.3	3
0	7185	10.3	3
0	7186	10.3	3
0	7191	10.3	3
0	7192	10.3	3
0	7193	10.3	3
0	7194	10.3	3
0	7211	10.35	3
0	7212	10.35	3
0	7213	10.35	3
0	7214	10.35	3
0	7223	10.4	3
0	7224	10.4	3
0	7225	10.4	3
0	7226	10.4	3
0	7231	10.4	3
0	7232	10.4	3
0	7233	10.4	3
0	7234	10.4	3
0	7251	10.45	3
0	7252	10.45	3
0	7253	10.45	3
0	7254	10.45	3
0	7425	10.5	3
0	7426	10.5	3
0	7427	10.5	3
0	7428	10.5	3
0	7433	10.5	3
0	7434	10.5	3
0	7435	10.5	3
0	7436	10.5	3
0	7483	10.55	3
0	7484	10.55	3
0	7485	10.55	3
0	7486	10.55	3
0	7495	10.6	3
0	7496	10.6	3
0	7497	10.6	3
0	7498	10.6	3
0	7503	10.6	3
0	7504	10.6	3
0	7505	10.6	3
0	7506	10.6	3
0	7523	10.65	3
0	7524	10.65	3
0	7525	10.65	3
0	7526	10.65	3
0	7535	10.7	3
0	7536	10.7	3
0	7537	10.7	3
0	7538	10.7	3
0	7543	10.7	3
0	7544	10.7	3
0	7545	10.7	3
0	7546	10.7	3
0	7563	10.75	3
0	7564	10.75	3
0	7565	10.75	3
0	7566	10.75	3
0	7575	10.8	3
0	7576	10.8	3
0	7577	10.8	3
0	7578	10.8	3
0	7583	10.8	3
0	7584	10.8	3
0	7585	10.8	3
0	7586	10.8	3
0	7603	10.85	3
0	7604	10.85	3
0	7605	10.85	3
0	7606	10.85	3
0	7615	10.9	3
0	7616	10.9	3
0	7617	10.9	3
0	7618	10.9	3
0	7623	10.9	3
0	7624	10.9	3
0	7625	10.9	3
0	7626	10.9	3
0	7643	10.95	3
0	7644	10.95	3
0	7645	10.95	3
0	7646	10.95	3
0	7655	11	3
0	7656	11	3
0	7657	11	3
0	7658	11	3
0	7663	11	3
0	7664	11	3
0	7665	11	3
0	7666	11	3
0	7839	11.05	3
0	7840	11.05	3
0	7841	11.05	3
0	7842	11.05	3
0	7854	11.1	3
0	7855	11.1	3
0	7856	11.1	3
0	7857	11.1	3
0	7862	11.1	3
0	7863	11.1	3
0	7864	11.1	3
0	7865	11.1	3
0	7885	11.15	3
0	7886	11.15	3
0	7887	11.15	3
0	7888	11.15	3
0	7897	11.2	3
0	7898	11.2	3
0	7899	11.2	3
0	7900	11.2	3
0	7905	11.2	3
0	7906	11.2	3
0	7907	11.2	3
0	7908	11.2	3
0	7925	11.25	3
0	7926	11.25	3
0	7927	11.25	3
0	7928	11.25	3
0	7937	11.3	3
0	7938	11.3	3
0	7939	11.3	3
0	7940	11.3	3
0	7945	11.3	3
0	7946	11.3	3
0	7947	11.3	3
0	7948	11.3	3
0	7965	11.35	3
0	7966	11.35	3
0	7967	11.35	3
0	7968	11.35	3
0	7977	11.4	3
0	7978	11.4	3
0	7979	11.4	3
0	7980	11.4	3
0	7985	11.4	3
0	7986	11.4	3
0	7987	11.4	3
0	7988	11.4	3
0	8005	11.45	3
0	8006	11.45	3
0	8007	11.45	3
0	8008	11.45	3
0	8017	11.5	3
0	8018	11.5	3
0	8019	11.5	3
0	8020	11.5	3
0	8025	11.5	3
0	8026	11.5	3
0	8027	11.5	3
0	8028	11.5	3
0	8045	11.55	3
0	8046	11.55	3
0	8047	11.55	3
0	8048	11.55	3
0	8219	11.6	3
0	8220	11.6	3
0	8221	11.6	3
0	8222	11.6	3
0	8227	11.6	3
0	8228	11.6	3
0	8229	11.6	3
0	8230	11.6	3
0	8277	11.65	3
0	8278	11.65	3
0	8279	11.65	3
0	8280	11.65	3
0	8289	11.7	3
0	8290	11.7	3
0	8291	11.7	3
0	8292	11.7	3
0	8297	11.7	3
0	8298	11.7	3
0	8299	11.7	3
0	8300	11.7	3
0	8317	11.75	3
0	8318	11.75	3
0	8319	11.75	3
0	8320	11.75	3
0	8329	11.8	3
0	8330	11.8	3
0	8331	11.8	3
0	8332	11.8	3
0	8337	11.8	3
0	8338	11.8	3
0	8339	11.8	3
0	8340	11.8	3
0	8357	11.85	3
0	8358	11.85	3
0	8359	11.85	3
0	8360	11.85	3
0	8369	11.9	3
0	8370	11.9	3
0	8371	11.9	3
0	8372	11.9	3
0	8377	11.9	3
0	8378	11.9	3
0	8379	11.9	3
0	8380	11.9	3
0	8397	11.95	3
0	8398	11.95	3
0	8399	11.95	3
0	8400	11.95	3
0	8409	12	3
0	8410	12	3
0	8411	12	3
0	8412	12	3
0	8417	12	3
0	8418	12	3
0	8419	12	3
0	8420	12	3
0	8437	12.05	3
0	8438	12.05	3
0	8439	12.05	3
0	8440	12.05	3
0	8452	12.1	3
0	8453	12.1	3
0	8454	12.1	3
0	8455	12.1	3
0	8460	12.1	3
0	8461	12.1	3
0	8462	12.1	3
0	8463	12.1	3
0	8635	12.15	3
0	8636	12.15	3
0	8637	12.15	3
0	8638	12.15	3
0	8677	12.2	3
0	8678	12.2	3
0	8679	12.2	3
0	8680	12.2	3
0	8685	12.2	3
0	8686	12.2	3
0	8687	12.2	3
0	8688	12.2	3
0	8705	12.25	3
0	8706	12.25	3
0	8707	12.25	3
0	8708	12.25	3
0	8717	12.3	3
0	8718	12.3	3
0	8719	12.3	3
0	8720	12.3	3
0	8725	12.3	3
0	8726	12.3	3
0	8727	12.3	3
0	8728	12.3	3
0	8745	12.35	3
0	8746	12.35	3
0	8747	12.35	3
0	8748	12.35	3
0	8757	12.4	3
0	8758	12.4	3
0	8759	12.4	3
0	8760	12.4	3
0	8765	12.4	3
0	8766	12.4	3
0	8767	12.4	3
0	8768	12.4	3
0	8785	12.45	3
0	8786	12.45	3
0	8787	12.45	3
0	8788	12.45	3
0	8797	12.5	3
0	8798	12.5	3
0	8799	12.5	3
0	8800	12.5	3
0	8805	12.5	3
0	8806	12.5	3
0	8807	12.5	3
0	8808	12.5	3
0	8825	12.55	3
0	8826	12.55	3
0	8827	12.55	3
0	8828	12.55	3
0	8837	12.6	3
0	8838	12.6	3
0	8839	12.6	3
0	8840	12.6	3
0	8845	12.6	3
0	8846	12.6	3
0	8847	12.6	3
0	8848	12.6	3
0	8865	12.65	3
0	8866	12.65	3
0	8867	12.65	3
0	8868	12.65	3
0	9020	12.7	3
0	9021	12.7	3
0	9022	12.7	3
0	9023	12.7	3
0	9028	12.7	3
0	9029	12.7	3
0	9030	12.7	3
0	9031	12.7	3
0	9048	12.75	3
0	9049	12.75	3
0	9050	12.75	3
0	9051	12.75	3
0	9060	12.8	3
0	9061	12.8	3
0	9062	12.8	3
0	9063	12.8	3
0	9068	12.8	3
0	9069	12.8	3
0	9070	12.8	3
0	9071	12.8	3
0	9101	12.85	3
0	9102	12.85	3
0	9103	12.85	3
0	9104	12.85	3
0	9113	12.9	3
0	9114	12.9	3
0	9115	12.9	3
0	9116	12.9	3
0	9121	12.9	3
0	9122	12.9	3
0	9123	12.9	3
0	9124	12.9	3
0	9141	12.95	3
0	9142	12.95	3
0	9143	12.95	3
0	9144	12.95	3
0	9153	13	3
0	9154	13	3
0	9155	13	3
0	9156	13	3
0	9161	13	3
0	9162	13	3
0	9163	13	3
0	9164	13	3
0	9181	13.05	3
0	9182	13.05	3
0	9183	13.05	3
0	9184	13.05	3
0	9196	13.1	3
0	9197	13.1	3
0	9198	13.1	3
0	9199	13.1	3
0	9204	13.1	3
0	9205	13.1	3
0	9206	13.1	3
0	9207	13.1	3
0	9227	13.15	3
0	9228	13.15	3
0	9229	13.15	3
0	9230	13.15	3
0	9239	13.2	3
0	9240	13.2	3
0	9241	13.2	3
0	9242	13.2	3
0	9247	13.2	3
0	9248	13.2	3
0	9249	13.2	3
0	9250	13.2	3
0	9414	13.25	3
0	9415	13.25	3
0	9416	13.25	3
0	9417	13.25	3
0	9446	13.3	3
0	9447	13.3	3
0	9448	13.3	3
0	9449	13.3	3
0	9454	13.3	3
0	9455	13.3	3
0	9456	13.3	3
0	9457	13.3	3
0	9474	13.35	3
0	9475	13.35	3
0	9476	13.35	3
0	9477	13.35	3
0	9511	13.4	3
0	9512	13.4	3
0	9513	13.4	3
0	9514	13.4	3
0	9519	13.4	3
0	9520	13.4	3
0	9521	13.4	3
0	9522	13.4	3
0	9539	13.45	3
0	9540	13.45	3
0	9541	13.45	3
0	9542	13.45	3
0	9551	13.5	3
0	9552	13.5	3
0	9553	13.5	3
0	9554	13.5	3
0	9559	13.5	3
0	9560	13.5	3
0	9561	13.5	3
0	9562	13.5	3
0	9579	13.55	3
0	9580	13.55	3
0	9581	13.55	3
0	9582	13.55	3
0	9591	13.6	3
0	9592	13.6	3
0	9593	13.6	3
0	9594	13.6	3
0	9599	13.6	3
0	9600	13.6	3
0	9601	13.6	3
0	9602	13.6	3
0	9619	13.65	3
0	9620	13.65	3
0	9621	13.65	3
0	9622	13.65	3
0	9631	13.7	3
0	9632	13.7	3
0	9633	13.7	3
0	9634	13.7	3
0	9639	13.7	3
0	9640	13.7	3
0	9641	13.7	3
0	9642	13.7	3
0	9659	13.75	3
0	9660	13.75	3
0	9661	13.75	3
0	9662	13.75	3
0	9808	13.8	3
0	9809	13.8	3
0	9810	13.8	3
0	9811	13.8	3
0	9816	13.8	3
0	9817	13.8	3
0	9818	13.8	3
0	9819	13.8	3
0	9836	13.85	3
0	9837	13.85	3
0	9838	13.85	3
0	9839	13.85	3
0	9848	13.9	3
0	9849	13.9	3
0	9850	13.9	3
0	9851	13.9	3
0	9856	13.9	3
0	9857	13.9	3
0	9858	13.9	3
0	9859	13.9	3
0	9889	13.95	3
0	9890	13.95	3
0	9891	13.95	3
0	9892	13.95	3
0	9901	14	3
0	9902	14	3
0	9903	14	3
0	9904	14	3
0	9909	14	3
0	9910	14	3
0	9911	14	3
0	9912	14	3
0	9929	14.05	3
0	9930	14.05	3
0	9931	14.05	3
0	9932	14.05	3
0	9944	14.1	3
0	9945	14.1	3
0	9946	14.1	3
0	9947	14.1	3
0	9952	14.1	3
0	9953	14.1	3
0	9954	14.1	3
0	9955	14.1	3
0	9975	14.15	3
0	9976	14.15	3
0	9977	14.15	3
0	9978	14.15	3
0	9987	14.2	3
0	9988	14.2	3
0	9989	14.2	3
0	9990	14.2	3
0	9995	14.2	3
0	9996	14.2	3
0	9997	14.2	3
0	9998	14.2	3
0	10015	14.25	3
0	10016	14.25	3
0	10017	14.25	3
0	10018	14.25	3
0	10027	14.3	3
0	10028	14.3	3
0	10029	14.3	3
0	10030	14.3	3
0	10035	14.3	3
0	10036	14.3	3
0	10037	14.3	3
0	10038	14.3	3
0	10202	14.35	3
0	10203	14.35	3
0	10204	14.35	3
0	10205	14.35	3
0	10234	14.4	3
0	10235	14.4	3
0	10236	14.4	3
0	10237	14.4	3
0	10242	14.4	3
0	10243	14.4	3
0	10244	14.4	3
0	10245	14.4	3
0	10262	14.45	3
0	10263	14.45	3
0	10264	14.45	3
0	10265	14.45	3
0	10299	14.5	3
0	10300	14.5	3
0	10301	14.5	3
0	10302	14.5	3
0	10307	14.5	3
0	10308	14.5	3
0	10309	14.5	3
0	10310	14.5	3
0	10327	14.55	3
0	10328	14.55	3
0	10329	14.55	3
0	10330	14.55	3
0	10339	14.6	3
0	10340	14.6	3
0	10341	14.6	3
0	10342	14.6	3
0	10347	14.6	3
0	10348	14.6	3
0	10349	14.6	3
0	10350	14.6	3
0	10367	14.65	3
0	10368	14.65	3
0	10369	14.65	3
0	10370	14.65	3
0	10379	14.7	3
0	10380	14.7	3
0	10381	14.7	3
0	10382	14.7	3
0	10387	14.7	3
0	10388	14.7	3
0	10389	14.7	3
0	10390	14.7	3
0	10407	14.75	3
0	10408	14.75	3
0	10409	14.75	3
0	10410	14.75	3
0	10419	14.8	3
0	10420	14.8	3
0	10421	14.8	3
0	10422	14.8	3
0	10427	14.8	3
0	10428	14.8	3
0	10429	14.8	3
0	10430	14.8	3
0	10447	14.85	3
0	10448	14.85	3
0	10449	14.85	3
0	10450	14.85	3
0	10602	14.9	3
0	10603	14.9	3
0	10604	14.9	3
0	10605	14.9	3
0	10610	14.9	3
0	10611	14.9	3
0	10612	14.9	3
0	10613	14.9	3
0	10630	14.95	3
0	10631	14.95	3
0	10632	14.95	3
0	10633	14.95	3
0	10642	15	3
0	10643	15	3
0	10644	15	3
0	10645	15	3
0	10650	15	3
0	10651	15	3
0	10652	15	3
0	10653	15	3
0	10683	15.05	3
0	10684	15.05	3
0	10685	15.05	3
0	10686	15.05	3
0	10698	15.1	3
0	10699	15.1	3
0	10700	15.1	3
0	10701	15.1	3
0	10706	15.1	3
0	10707	15.1	3
0	10708	15.1	3
0	10709	15.1	3
0	10729	15.15	3
0	10730	15.15	3
0	10731	15.15	3
0	10732	15.15	3
0	10741	15.2	3
0	10742	15.2	3
0	10743	15.2	3
0	10744	15.2	3
0	10749	15.2	3
0	10750	15.2	3
0	10751	15.2	3
0	10752	15.2	3
0	10769	15.25	3
0	10770	15.25	3
0	10771	15.25	3
0	10772	15.25	3
0	10781	15.3	3
0	10782	15.3	3
0	10783	15.3	3
0	10784	15.3	3
0	10789	15.3	3
0	10790	15.3	3
0	10791	15.3	3
0	10792	15.3	3
0	10809	15.35	3
0	10810	15.35	3
0	10811	15.35	3
0	10812	15.35	3
0	10821	15.4	3
0	10822	15.4	3
0	10823	15.4	3
0	10824	15.4	3
0	10829	15.4	3
0	10830	15.4	3
0	10831	15.4	3
0	10832	15.4	3
0	10996	15.45	3
0	10997	15.45	3
0	10998	15.45	3
0	10999	15.45	3
0	11028	15.5	3
0	11029	15.5	3
0	11030	15.5	3
0	11031	15.5	3
0	11036	15.5	3
0	11037	15.5	3
0	11038	15.5	3
0	11039	15.5	3
0	11056	15.55	3
0	11057	15.55	3
0	11058	15.55	3
0	11059	15.55	3
0	11071	15.6	3
0	11072	15.6	3
0	11073	15.6	3
0	11074	15.6	3
0	11079	15.6	3
0	11080	15.6	3
0	11081	15.6	3
0	11082	15.6	3
0	11099	15.65	3
0	11100	15.65	3
0	11101	15.65	3
0	11102	15.65	3
0	11111	15.7	3
0	11112	15.7	3
0	11113	15.7	3
0	11114	15.7	3
0	11119	15.7	3
0	11120	15.7	3
0	11121	15.7	3
0	11122	15.7	3
0	11139	15.75	3
0	11140	15.75	3
0	11141	15.75	3
0	11142	15.75	3
0	11151	15.8	3
0	11152	15.8	3
0	11153	15.8	3
0	11154	15.8	3
0	11159	15.8	3
0	11160	15.8	3
0	11161	15.8	3
0	11162	15.8	3
0	11179	15.85	3
0	11180	15.85	3
0	11181	15.85	3
0	11182	15.85	3
0	11191	15.9	3
0	11192	15.9	3
0	11193	15.9	3
0	11194	15.9	3
0	11199	15.9	3
0	11200	15.9	3
0	11201	15.9	3
0	11202	15.9	3
0	11219	15.95	3
0	11220	15.95	3
0	11221	15.95	3
0	11222	15.95	3
0	11361	16	3
0	11362	16	3
0	11363	16	3
0	11364	16	3
0	11369	16	3
0	11370	16	3
0	11371	16	3
0	11372	16	3
0	11389	16.05	3
0	11390	16.05	3
0	11391	16.05	3
0	11392	16.05	3
0	11404	16.1	3
0	11405	16.1	3
0	11406	16.1	3
0	11407	16.1	3
0	11412	16.1	3
0	11413	16.1	3
0	11414	16.1	3
0	11415	16.1	3
0	11435	16.15	3
0	11436	16.15	3
0	11437	16.15	3
0	11438	16.15	3
0	11447	16.2	3
0	11448	16.2	3
0	11449	16.2	3
0	11450	16.2	3
0	11455	16.2	3
0	11456	16.2	3
0	11457	16.2	3
0	11458	16.2	3
0	11475	16.25	3
0	11476	16.25	3
0	11477	16.25	3
0	11478	16.25	3
0	11487	16.3	3
0	11488	16.3	3
0	11489	16.3	3
0	11490	16.3	3
0	11495	16.3	3
0	11496	16.3	3
0	11497	16.3	3
0	11498	16.3	3
0	11515	16.35	3
0	11516	16.35	3
0	11517	16.35	3
0	11518	16.35	3
0	11527	16.4	3
0	11528	16.4	3
0	11529	16.4	3
0	11530	16.4	3
0	11535	16.4	3
0	11536	16.4	3
0	11537	16.4	3
0	11538	16.4	3
0	11555	16.45	3
0	11556	16.45	3
0	11557	16.45	3
0	11558	16.45	3
0	11567	16.5	3
0	11568	16.5	3
0	11569	16.5	3
0	11570	16.5	3
0	11575	16.5	3
0	11576	16.5	3
0	11577	16.5	3
0	11578	16.5	3
0	11733	16.55	3
0	11734	16.55	3
0	11735	16.55	3
0	11736	16.55	3
0	11785	16.6	3
0	11786	16.6	3
0	11787	16.6	3
0	11788	16.6	3
0	11793	16.6	3
0	11794	16.6	3
0	11795	16.6	3
0	11796	16.6	3
0	11813	16.65	3
0	11814	16.65	3
0	11815	16.65	3
0	11816	16.65	3
0	11825	16.7	3
0	11826	16.7	3
0	11827	16.7	3
0	11828	16.7	3
0	11833	16.7	3
0	11834	16.7	3
0	11835	16.7	3
0	11836	16.7	3
0	11853	16.75	3
0	11854	16.75	3
0	11855	16.75	3
0	11856	16.75	3
0	11865	16.8	3
0	11866	16.8	3
0	11867	16.8	3
0	11868	16.8	3
0	11873	16.8	3
0	11874	16.8	3
0	11875	16.8	3
0	11876	16.8	3
0	11893	16.85	3
0	11894	16.85	3
0	11895	16.85	3
0	11896	16.85	3
0	11905	16.9	3
0	11906	16.9	3
0	11907	16.9	3
0	11908	16.9	3
0	11913	16.9	3
0	11914	16.9	3
0	11915	16.9	3
0	11916	16.9	3
0	11933	16.95	3
0	11934	16.95	3
0	11935	16.95	3
0	11936	16.95	3
0	11945	17	3
0	11946	17	3
0	11947	17	3
0	11948	17	3
0	11953	17	3
0	11954	17	3
0	11955	17	3
0	11956	17	3
0	11976	17.05	3
0	11977	17.05	3
0	11978	17.05	3
0	11979	17.05	3
0	12122	17.1	3
0	12123	17.1	3
0	12124	17.1	3
0	12125	17.1	3
0	12130	17.1	3
0	12131	17.1	3
0	12132	17.1	3
0	12133	17.1	3
0	12183	17.15	3
0	12184	17.15	3
0	12185	17.15	3
0	12186	17.15	3
0	12195	17.2	3
0	12196	17.2	3
0	12197	17.2	3
0	12198	17.2	3
0	12203	17.2	3
0	12204	17.2	3
0	12205	17.2	3
0	12206	17.2	3
0	12223	17.25	3
0	12224	17.25	3
0	12225	17.25	3
0	12226	17.25	3
0	12235	17.3	3
0	12236	17.3	3
0	12237	17.3	3
0	12238	17.3	3
0	12243	17.3	3
0	12244	17.3	3
0	12245	17.3	3
0	12246	17.3	3
0	12263	17.35	3
0	12264	17.35	3
0	12265	17.35	3
0	12266	17.35	3
0	12275	17.4	3
0	12276	17.4	3
0	12277	17.4	3
0	12278	17.4	3
0	12283	17.4	3
0	12284	17.4	3
0	12285	17.4	3
0	12286	17.4	3
0	12303	17.45	3
0	12304	17.45	3
0	12305	17.45	3
0	12306	17.45	3
0	12315	17.5	3
0	12316	17.5	3
0	12317	17.5	3
0	12318	17.5	3
0	12323	17.5	3
0	12324	17.5	3
0	12325	17.5	3
0	12326	17.5	3
0	12343	17.55	3
0	12344	17.55	3
0	12345	17.55	3
0	12346	17.55	3
0	12365	17.6	3
0	12366	17.6	3
0	12367	17.6	3
0	12368	17.6	3
0	12373	17.6	3
0	12374	17.6	3
0	12375	17.6	3
0	12376	17.6	3
0	12527	17.65	3
0	12528	17.65	3
0	12529	17.65	3
0	12530	17.65	3
0	12559	17.7	3
0	12560	17.7	3
0	12561	17.7	3
0	12562	17.7	3
0	12567	17.7	3
0	12568	17.7	3
0	12569	17.7	3
0	12570	17.7	3
0	12597	17.75	3
0	12598	17.75	3
0	12599	17.75	3
0	12600	17.75	3
0	12609	17.8	3
0	12610	17.8	3
0	12611	17.8	3
0	12612	17.8	3
0	12617	17.8	3
0	12618	17.8	3
0	12619	17.8	3
0	12620	17.8	3
0	12637	17.85	3
0	12638	17.85	3
0	12639	17.85	3
0	12640	17.85	3
0	12649	17.9	3
0	12650	17.9	3
0	12651	17.9	3
0	12652	17.9	3
0	12657	17.9	3
0	12658	17.9	3
0	12659	17.9	3
0	12660	17.9	3
0	12677	17.95	3
0	12678	17.95	3
0	12679	17.95	3
0	12680	17.95	3
0	12689	18	3
0	12690	18	3
0	12691	18	3
0	12692	18	3
0	12697	18	3
0	12698	18	3
0	12699	18	3
0	12700	18	3
0	12717	18.05	3
0	12718	18.05	3
0	12719	18.05	3
0	12720	18.05	3
0	12732	18.1	3
0	12733	18.1	3
0	12734	18.1	3
0	12735	18.1	3
0	12740	18.1	3
0	12741	18.1	3
0	12742	18.1	3
0	12743	18.1	3
0	12776	18.15	3
0	12777	18.15	3
0	12778	18.15	3
0	12779	18.15	3
0	12922	18.2	3
0	12923	18.2	3
0	12924	18.2	3
0	12925	18.2	3
0	12930	18.2	3
0	12931	18.2	3
0	12932	18.2	3
0	12933	18.2	3
0	12970	18.25	3
0	12971	18.25	3
0	12972	18.25	3
0	12973	18.25	3
0	12992	18.3	3
0	12993	18.3	3
0	12994	18.3	3
0	12995	18.3	3
0	13000	18.3	3
0	13001	18.3	3
0	13002	18.3	3
0	13003	18.3	3
0	13020	18.35	3
0	13021	18.35	3
0	13022	18.35	3
0	13023	18.35	3
0	13032	18.4	3
0	13033	18.4	3
0	13034	18.4	3
0	13035	18.4	3
0	13040	18.4	3
0	13041	18.4	3
0	13042	18.4	3
0	13043	18.4	3
0	13060	18.45	3
0	13061	18.45	3
0	13062	18.45	3
0	13063	18.45	3
0	13072	18.5	3
0	13073	18.5	3
0	13074	18.5	3
0	13075	18.5	3
0	13080	18.5	3
0	13081	18.5	3
0	13082	18.5	3
0	13083	18.5	3
0	13100	18.55	3
0	13101	18.55	3
0	13102	18.55	3
0	13103	18.55	3
0	13112	18.6	3
0	13113	18.6	3
0	13114	18.6	3
0	13115	18.6	3
0	13120	18.6	3
0	13121	18.6	3
0	13122	18.6	3
0	13123	18.6	3
0	13140	18.65	3
0	13141	18.65	3
0	13142	18.65	3
0	13143	18.65	3
0	13165	18.7	3
0	13166	18.7	3
0	13167	18.7	3
0	13168	18.7	3
0	13173	18.7	3
0	13174	18.7	3
0	13175	18.7	3
0	13176	18.7	3
0	13323	18.75	3
0	13324	18.75	3
0	13325	18.75	3
0	13326	18.75	3
0	13335	18.8	3
0	13336	18.8	3
0	13337	18.8	3
0	13338	18.8	3
0	13343	18.8	3
0	13344	18.8	3
0	13345	18.8	3
0	13346	18.8	3
0	13400	18.85	3
0	13401	18.85	3
0	13402	18.85	3
0	13403	18.85	3
0	13412	18.9	3
0	13413	18.9	3
0	13414	18.9	3
0	13415	18.9	3
0	13420	18.9	3
0	13421	18.9	3
0	13422	18.9	3
0	13423	18.9	3
0	13440	18.95	3
0	13441	18.95	3
0	13442	18.95	3
0	13443	18.95	3
0	13452	19	3
0	13453	19	3
0	13454	19	3
0	13455	19	3
0	13460	19	3
0	13461	19	3
0	13462	19	3
0	13463	19	3
0	13480	19.05	3
0	13481	19.05	3
0	13482	19.05	3
0	13483	19.05	3
0	13495	19.1	3
0	13496	19.1	3
0	13497	19.1	3
0	13498	19.1	3
0	13503	19.1	3
0	13504	19.1	3
0	13505	19.1	3
0	13506	19.1	3
0	13526	19.15	3
0	13527	19.15	3
0	13528	19.15	3
0	13529	19.15	3
0	13538	19.2	3
0	13539	19.2	3
0	13540	19.2	3
0	13541	19.2	3
0	13546	19.2	3
0	13547	19.2	3
0	13548	19.2	3
0	13549	19.2	3
0	13579	19.25	3
0	13580	19.25	3
0	13581	19.25	3
0	13582	19.25	3
0	13722	19.3	3
0	13723	19.3	3
0	13724	19.3	3
0	13725	19.3	3
0	13730	19.3	3
0	13731	19.3	3
0	13732	19.3	3
0	13733	19.3	3
0	13770	19.35	3
0	13771	19.35	3
0	13772	19.35	3
0	13773	19.35	3
0	13807	19.4	3
0	13808	19.4	3
0	13809	19.4	3
0	13810	19.4	3
0	13815	19.4	3
0	13816	19.4	3
0	13817	19.4	3
0	13818	19.4	3
0	13835	19.45	3
0	13836	19.45	3
0	13837	19.45	3
0	13838	19.45	3
0	13847	19.5	3
0	13848	19.5	3
0	13849	19.5	3
0	13850	19.5	3
0	13855	19.5	3
0	13856	19.5	3
0	13857	19.5	3
0	13858	19.5	3
0	13875	19.55	3
0	13876	19.55	3
0	13877	19.55	3
0	13878	19.55	3
0	13887	19.6	3
0	13888	19.6	3
0	13889	19.6	3
0	13890	19.6	3
0	13895	19.6	3
0	13896	19.6	3
0	13897	19.6	3
0	13898	19.6	3
0	13915	19.65	3
0	13916	19.65	3
0	13917	19.65	3
0	13918	19.65	3
0	13927	19.7	3
0	13928	19.7	3
0	13929	19.7	3
0	13930	19.7	3
0	13935	19.7	3
0	13936	19.7	3
0	13937	19.7	3
0	13938	19.7	3
0	13955	19.75	3
0	13956	19.75	3
0	13957	19.75	3
0	13958	19.75	3
0	13977	19.8	3
0	13978	19.8	3
0	13979	19.8	3
0	13980	19.8	3
0	13985	19.8	3
0	13986	19.8	3
0	13987	19.8	3
0	13988	19.8	3
0	14132	19.85	3
0	14133	19.85	3
0	14134	19.85	3
0	14135	19.85	3
0	14144	19.9	3
0	14145	19.9	3
0	14146	19.9	3
0	14147	19.9	3
0	14152	19.9	3
0	14153	19.9	3
0	14154	19.9	3
0	14155	19.9	3
0	14175	19.95	3
0	14176	19.95	3
0	14177	19.95	3
0	14178	19.95	3
0	14187	20	3
0	14188	20	3
0	14189	20	3
0	14190	20	3
0	14195	20	3
0	14196	20	3
0	14197	20	3
0	14198	20	3
0	14215	20.05	3
0	14216	20.05	3
0	14217	20.05	3
0	14218	20.05	3
0	14230	20.1	3
0	14231	20.1	3
0	14232	20.1	3
0	14233	20.1	3
0	14238	20.1	3
0	14239	20.1	3
0	14240	20.1	3
0	14241	20.1	3
0	14261	20.15	3
0	14262	20.15	3
0	14263	20.15	3
0	14264	20.15	3
0	14273	20.2	3
0	14274	20.2	3
0	14275	20.2	3
0	14276	20.2	3
0	14281	20.2	3
0	14282	20.2	3
0	14283	20.2	3
0	14284	20.2	3
0	14301	20.25	3
0	14302	20.25	3
0	14303	20.25	3
0	14304	20.25	3
0	14313	20.3	3
0	14314	20.3	3
0	14315	20.3	3
0	14316	20.3	3
0	14321	20.3	3
0	14322	20.3	3
0	14323	20.3	3
0	14324	20.3	3
0	14341	20.35	3
0	14342	20.35	3
0	14343	20.35	3
0	14344	20.35	3
0	14481	20.4	3
0	14482	20.4	3
0	14483	20.4	3
0	14484	20.4	3
0	14489	20.4	3
0	14490	20.4	3
0	14491	20.4	3
0	14492	20.4	3
0	14529	20.45	3
0	14530	20.45	3
0	14531	20.45	3
0	14532	20.45	3
0	14541	20.5	3
0	14542	20.5	3
0	14543	20.5	3
0	14544	20.5	3
0	14549	20.5	3
0	14550	20.5	3
0	14551	20.5	3
0	14552	20.5	3
0	14569	20.55	3
0	14570	20.55	3
0	14571	20.55	3
0	14572	20.55	3
0	14581	20.6	3
0	14582	20.6	3
0	14583	20.6	3
0	14584	20.6	3
0	14589	20.6	3
0	14590	20.6	3
0	14591	20.6	3
0	14592	20.6	3
0	14609	20.65	3
0	14610	20.65	3
0	14611	20.65	3
0	14612	20.65	3
0	14621	20.7	3
0	14622	20.7	3
0	14623	20.7	3
0	14624	20.7	3
0	14629	20.7	3
0	14630	20.7	3
0	14631	20.7	3
0	14632	20.7	3
0	14649	20.75	3
0	14650	20.75	3
0	14651	20.75	3
0	14652	20.75	3
0	14661	20.8	3
0	14662	20.8	3
0	14663	20.8	3
0	14664	20.8	3
0	14669	20.8	3
0	14670	20.8	3
0	14671	20.8	3
0	14672	20.8	3
0	14689	20.85	3
0	14690	20.85	3
0	14691	20.85	3
0	14692	20.85	3
0	14701	20.9	3
0	14702	20.9	3
0	14703	20.9	3
0	14704	20.9	3
0	14709	20.9	3
0	14710	20.9	3
0	14711	20.9	3
0	14712	20.9	3
0	14848	20.95	3
0	14849	20.95	3
0	14850	20.95	3
0	14851	20.95	3
0	14870	21	3
0	14871	21	3
0	14872	21	3
0	14873	21	3
0	14878	21	3
0	14879	21	3
0	14880	21	3
0	14881	21	3
0	14898	21.05	3
0	14899	21.05	3
0	14900	21.05	3
0	14901	21.05	3
0	14913	21.1	3
0	14914	21.1	3
0	14915	21.1	3
0	14916	21.1	3
0	14921	21.1	3
0	14922	21.1	3
0	14923	21.1	3
0	14924	21.1	3
0	14944	21.15	3
0	14945	21.15	3
0	14946	21.15	3
0	14947	21.15	3
0	14956	21.2	3
0	14957	21.2	3
0	14958	21.2	3
0	14959	21.2	3
0	14964	21.2	3
0	14965	21.2	3
0	14966	21.2	3
0	14967	21.2	3
0	14984	21.25	3
0	14985	21.25	3
0	14986	21.25	3
0	14987	21.25	3
0	14996	21.3	3
0	14997	21.3	3
0	14998	21.3	3
0	14999	21.3	3
0	15004	21.3	3
0	15005	21.3	3
0	15006	21.3	3
0	15007	21.3	3
0	15024	21.35	3
0	15025	21.35	3
0	15026	21.35	3
0	15027	21.35	3
0	15049	21.4	3
0	15050	21.4	3
0	15051	21.4	3
0	15052	21.4	3
0	15057	21.4	3
0	15058	21.4	3
0	15059	21.4	3
0	15060	21.4	3
0	15077	21.45	3
0	15078	21.45	3
0	15079	21.45	3
0	15080	21.45	3
0	15222	21.5	3
0	15223	21.5	3
0	15224	21.5	3
0	15225	21.5	3
0	15230	21.5	3
0	15231	21.5	3
0	15232	21.5	3
0	15233	21.5	3
0	15292	21.55	3
0	15293	21.55	3
0	15294	21.55	3
0	15295	21.55	3
0	15304	21.6	3
0	15305	21.6	3
0	15306	21.6	3
0	15307	21.6	3
0	15312	21.6	3
0	15313	21.6	3
0	15314	21.6	3
0	15315	21.6	3
0	15335	21.65	3
0	15336	21.65	3
0	15337	21.65	3
0	15338	21.65	3
0	15347	21.7	3
0	15348	21.7	3
0	15349	21.7	3
0	15350	21.7	3
0	15355	21.7	3
0	15356	21.7	3
0	15357	21.7	3
0	15358	21.7	3
0	15375	21.75	3
0	15376	21.75	3
0	15377	21.75	3
0	15378	21.75	3
0	15387	21.8	3
0	15388	21.8	3
0	15389	21.8	3
0	15390	21.8	3
0	15395	21.8	3
0	15396	21.8	3
0	15397	21.8	3
0	15398	21.8	3
0	15415	21.85	3
0	15416	21.85	3
0	15417	21.85	3
0	15418	21.85	3
0	15427	21.9	3
0	15428	21.9	3
0	15429	21.9	3
0	15430	21.9	3
0	15435	21.9	3
0	15436	21.9	3
0	15437	21.9	3
0	15438	21.9	3
0	15458	21.95	3
0	15459	21.95	3
0	15460	21.95	3
0	15461	21.95	3
0	15470	22	3
0	15471	22	3
0	15472	22	3
0	15473	22	3
0	15478	22	3
0	15479	22	3
0	15480	22	3
0	15481	22	3
0	15602	22.05	3
0	15603	22.05	3
0	15604	22.05	3
0	15605	22.05	3
0	15617	22.1	3
0	15618	22.1	3
0	15619	22.1	3
0	15620	22.1	3
0	15625	22.1	3
0	15626	22.1	3
0	15627	22.1	3
0	15628	22.1	3
0	15648	22.15	3
0	15649	22.15	3
0	15650	22.15	3
0	15651	22.15	3
0	15660	22.2	3
0	15661	22.2	3
0	15662	22.2	3
0	15663	22.2	3
0	15668	22.2	3
0	15669	22.2	3
0	15670	22.2	3
0	15671	22.2	3
0	15688	22.25	3
0	15689	22.25	3
0	15690	22.25	3
0	15691	22.25	3
0	15700	22.3	3
0	15701	22.3	3
0	15702	22.3	3
0	15703	22.3	3
0	15708	22.3	3
0	15709	22.3	3
0	15710	22.3	3
0	15711	22.3	3
0	15728	22.35	3
0	15729	22.35	3
0	15730	22.35	3
0	15731	22.35	3
0	15740	22.4	3
0	15741	22.4	3
0	15742	22.4	3
0	15743	22.4	3
0	15748	22.4	3
0	15749	22.4	3
0	15750	22.4	3
0	15751	22.4	3
0	15768	22.45	3
0	15769	22.45	3
0	15770	22.45	3
0	15771	22.45	3
0	15780	22.5	3
0	15781	22.5	3
0	15782	22.5	3
0	15783	22.5	3
0	15788	22.5	3
0	15789	22.5	3
0	15790	22.5	3
0	15791	22.5	3
0	15808	22.55	3
0	15809	22.55	3
0	15810	22.55	3
0	15811	22.55	3
0	15942	22.6	3
0	15943	22.6	3
0	15944	22.6	3
0	15945	22.6	3
0	15950	22.6	3
0	15951	22.6	3
0	15952	22.6	3
0	15953	22.6	3
0	16000	22.65	3
0	16001	22.65	3
0	16002	22.65	3
0	16003	22.65	3
0	16012	22.7	3
0	16013	22.7	3
0	16014	22.7	3
0	16015	22.7	3
0	16020	22.7	3
0	16021	22.7	3
0	16022	22.7	3
0	16023	22.7	3
0	16040	22.75	3
0	16041	22.75	3
0	16042	22.75	3
0	16043	22.75	3
0	16052	22.8	3
0	16053	22.8	3
0	16054	22.8	3
0	16055	22.8	3
0	16060	22.8	3
0	16061	22.8	3
0	16062	22.8	3
0	16063	22.8	3
0	16080	22.85	3
0	16081	22.85	3
0	16082	22.85	3
0	16083	22.85	3
0	16092	22.9	3
0	16093	22.9	3
0	16094	22.9	3
0	16095	22.9	3
0	16100	22.9	3
0	16101	22.9	3
0	16102	22.9	3
0	16103	22.9	3
0	16120	22.95	3
0	16121	22.95	3
0	16122	22.95	3
0	16123	22.95	3
0	16132	23	3
0	16133	23	3
0	16134	23	3
0	16135	23	3
0	16140	23	3
0	16141	23	3
0	16142	23	3
0	16143	23	3
0	16160	23.05	3
0	16161	23.05	3
0	16162	23.05	3
0	16163	23.05	3
0	16188	23.1	3
0	16189	23.1	3
0	16190	23.1	3
0	16191	23.1	3
0	16196	23.1	3
0	16197	23.1	3
0	16198	23.1	3
0	16199	23.1	3
0	16344	23.15	3
0	16345	23.15	3
0	16346	23.15	3
0	16347	23.15	3
0	16386	23.2	3
0	16387	23.2	3
0	16388	23.2	3
0	16389	23.2	3
0	16394	23.2	3
0	16395	23.2	3
0	16396	23.2	3
0	16397	23.2	3
0	16427	23.25	3
0	16428	23.25	3
0	16429	23.25	3
0	16430	23.25	3
0	16442	23.3	3
0	16443	23.3	3
0	16444	23.3	3
0	16445	23.3	3
0	16450	23.3	3
0	16451	23.3	3
0	16452	23.3	3
0	16453	23.3	3
0	16470	23.35	3
0	16471	23.35	3
0	16472	23.35	3
0	16473	23.35	3
0	16482	23.4	3
0	16483	23.4	3
0	16484	23.4	3
0	16485	23.4	3
0	16490	23.4	3
0	16491	23.4	3
0	16492	23.4	3
0	16493	23.4	3
0	16510	23.45	3
0	16511	23.45	3
0	16512	23.45	3
0	16513	23.45	3
0	16522	23.5	3
0	16523	23.5	3
0	16524	23.5	3
0	16525	23.5	3
0	16530	23.5	3
0	16531	23.5	3
0	16532	23.5	3
0	16533	23.5	3
0	16550	23.55	3
0	16551	23.55	3
0	16552	23.55	3
0	16553	23.55	3
0	16562	23.6	3
0	16563	23.6	3
0	16564	23.6	3
0	16565	23.6	3
0	16570	23.6	3
0	16571	23.6	3
0	16572	23.6	3
0	16573	23.6	3
0	16603	23.65	3
0	16604	23.65	3
0	16605	23.65	3
0	16606	23.65	3
0	16715	23.7	3
0	16716	23.7	3
0	16717	23.7	3
0	16718	23.7	3
0	16723	23.7	3
0	16724	23.7	3
0	16725	23.7	3
0	16726	23.7	3
0	16746	23.75	3
0	16747	23.75	3
0	16748	23.75	3
0	16749	23.75	3
0	16771	23.8	3
0	16772	23.8	3
0	16773	23.8	3
0	16774	23.8	3
0	16779	23.8	3
0	16780	23.8	3
0	16781	23.8	3
0	16782	23.8	3
0	16802	23.85	3
0	16803	23.85	3
0	16804	23.85	3
0	16805	23.85	3
0	16814	23.9	3
0	16815	23.9	3
0	16816	23.9	3
0	16817	23.9	3
0	16822	23.9	3
0	16823	23.9	3
0	16824	23.9	3
0	16825	23.9	3
0	16842	23.95	3
0	16843	23.95	3
0	16844	23.95	3
0	16845	23.95	3
0	16854	24	3
0	16855	24	3
0	16856	24	3
0	16857	24	3
0	16862	24	3
0	16863	24	3
0	16864	24	3
0	16865	24	3
0	16882	24.05	3
0	16883	24.05	3
0	16884	24.05	3
0	16885	24.05	3
0	16897	24.1	3
0	16898	24.1	3
0	16899	24.1	3
0	16900	24.1	3
0	16905	24.1	3
0	16906	24.1	3
0	16907	24.1	3
0	16908	24.1	3
0	16928	24.15	3
0	16929	24.15	3
0	16930	24.15	3
0	16931	24.15	3
0	16950	24.2	3
0	16951	24.2	3
0	16952	24.2	3
0	16953	24.2	3
0	16958	24.2	3
0	16959	24.2	3
0	16960	24.2	3
0	16961	24.2	3
0	17082	24.25	3
0	17083	24.25	3
0	17084	24.25	3
0	17085	24.25	3
0	17104	24.3	3
0	17105	24.3	3
0	17106	24.3	3
0	17107	24.3	3
0	17112	24.3	3
0	17113	24.3	3
0	17114	24.3	3
0	17115	24.3	3
0	17145	24.35	3
0	17146	24.35	3
0	17147	24.35	3
0	17148	24.35	3
0	17157	24.4	3
0	17158	24.4	3
0	17159	24.4	3
0	17160	24.4	3
0	17165	24.4	3
0	17166	24.4	3
0	17167	24.4	3
0	17168	24.4	3
0	17185	24.45	3
0	17186	24.45	3
0	17187	24.45	3
0	17188	24.45	3
0	17197	24.5	3
0	17198	24.5	3
0	17199	24.5	3
0	17200	24.5	3
0	17205	24.5	3
0	17206	24.5	3
0	17207	24.5	3
0	17208	24.5	3
0	17225	24.55	3
0	17226	24.55	3
0	17227	24.55	3
0	17228	24.55	3
0	17237	24.6	3
0	17238	24.6	3
0	17239	24.6	3
0	17240	24.6	3
0	17245	24.6	3
0	17246	24.6	3
0	17247	24.6	3
0	17248	24.6	3
0	17265	24.65	3
0	17266	24.65	3
0	17267	24.65	3
0	17268	24.65	3
0	17277	24.7	3
0	17278	24.7	3
0	17279	24.7	3
0	17280	24.7	3
0	17285	24.7	3
0	17286	24.7	3
0	17287	24.7	3
0	17288	24.7	3
0	17343	24.75	3
0	17344	24.75	3
0	17345	24.75	3
0	17346	24.75	3
0	17433	24.8	3
0	17434	24.8	3
0	17435	24.8	3
0	17436	24.8	3
0	17441	24.8	3
0	17442	24.8	3
0	17443	24.8	3
0	17444	24.8	3
0	17461	24.85	3
0	17462	24.85	3
0	17463	24.85	3
0	17464	24.85	3
0	17486	24.9	3
0	17487	24.9	3
0	17488	24.9	3
0	17489	24.9	3
0	17494	24.9	3
0	17495	24.9	3
0	17496	24.9	3
0	17497	24.9	3
0	17514	24.95	3
0	17515	24.95	3
0	17516	24.95	3
0	17517	24.95	3
0	17526	25	3
0	17527	25	3
0	17528	25	3
0	17529	25	3
0	17534	25	3
0	17535	25	3
0	17536	25	3
0	17537	25	3
0	17554	25.05	3
0	17555	25.05	3
0	17556	25.05	3
0	17557	25.05	3
0	17569	25.1	3
0	17570	25.1	3
0	17571	25.1	3
0	17572	25.1	3
0	17577	25.1	3
0	17578	25.1	3
0	17579	25.1	3
0	17580	25.1	3
0	17600	25.15	3
0	17601	25.15	3
0	17602	25.15	3
0	17603	25.15	3
0	17612	25.2	3
0	17613	25.2	3
0	17614	25.2	3
0	17615	25.2	3
0	17620	25.2	3
0	17621	25.2	3
0	17622	25.2	3
0	17623	25.2	3
0	17640	25.25	3
0	17641	25.25	3
0	17642	25.25	3
0	17643	25.25	3
0	17675	25.3	3
0	17676	25.3	3
0	17677	25.3	3
0	17678	25.3	3
0	17683	25.3	3
0	17684	25.3	3
0	17685	25.3	3
0	17686	25.3	3
0	17807	25.35	3
0	17808	25.35	3
0	17809	25.35	3
0	17810	25.35	3
0	17829	25.4	3
0	17830	25.4	3
0	17831	25.4	3
0	17832	25.4	3
0	17837	25.4	3
0	17838	25.4	3
0	17839	25.4	3
0	17840	25.4	3
0	17880	25.45	3
0	17881	25.45	3
0	17882	25.45	3
0	17883	25.45	3
0	17892	25.5	3
0	17893	25.5	3
0	17894	25.5	3
0	17895	25.5	3
0	17900	25.5	3
0	17901	25.5	3
0	17902	25.5	3
0	17903	25.5	3
0	17920	25.55	3
0	17921	25.55	3
0	17922	25.55	3
0	17923	25.55	3
0	17932	25.6	3
0	17933	25.6	3
0	17934	25.6	3
0	17935	25.6	3
0	17940	25.6	3
0	17941	25.6	3
0	17942	25.6	3
0	17943	25.6	3
0	17960	25.65	3
0	17961	25.65	3
0	17962	25.65	3
0	17963	25.65	3
0	17972	25.7	3
0	17973	25.7	3
0	17974	25.7	3
0	17975	25.7	3
0	17980	25.7	3
0	17981	25.7	3
0	17982	25.7	3
0	17983	25.7	3
0	18000	25.75	3
0	18001	25.75	3
0	18002	25.75	3
0	18003	25.75	3
0	18012	25.8	3
0	18013	25.8	3
0	18014	25.8	3
0	18015	25.8	3
0	18020	25.8	3
0	18021	25.8	3
0	18022	25.8	3
0	18023	25.8	3
0	18068	25.85	3
0	18069	25.85	3
0	18070	25.85	3
0	18071	25.85	3
0	18158	25.9	3
0	18159	25.9	3
0	18160	25.9	3
0	18161	25.9	3
0	18166	25.9	3
0	18167	25.9	3
0	18168	25.9	3
0	18169	25.9	3
0	18186	25.95	3
0	18187	25.95	3
0	18188	25.95	3
0	18189	25.95	3
0	18211	26	3
0	18212	26	3
0	18213	26	3
0	18214	26	3
0	18219	26	3
0	18220	26	3
0	18221	26	3
0	18222	26	3
0	18239	26.05	3
0	18240	26.05	3
0	18241	26.05	3
0	18242	26.05	3
0	18254	26.1	3
0	18255	26.1	3
0	18256	26.1	3
0	18257	26.1	3
0	18262	26.1	3
0	18263	26.1	3
0	18264	26.1	3
0	18265	26.1	3
0	18285	26.15	3
0	18286	26.15	3
0	18287	26.15	3
0	18288	26.15	3
0	18297	26.2	3
0	18298	26.2	3
0	18299	26.2	3
0	18300	26.2	3
0	18305	26.2	3
0	18306	26.2	3
0	18307	26.2	3
0	18308	26.2	3
0	18325	26.25	3
0	18326	26.25	3
0	18327	26.25	3
0	18328	26.25	3
0	18337	26.3	3
0	18338	26.3	3
0	18339	26.3	3
0	18340	26.3	3
0	18345	26.3	3
0	18346	26.3	3
0	18347	26.3	3
0	18348	26.3	3
0	18375	26.35	3
0	18376	26.35	3
0	18377	26.35	3
0	18378	26.35	3
0	18397	26.4	3
0	18398	26.4	3
0	18399	26.4	3
0	18400	26.4	3
0	18405	26.4	3
0	18406	26.4	3
0	18407	26.4	3
0	18408	26.4	3
0	18529	26.45	3
0	18530	26.45	3
0	18531	26.45	3
0	18532	26.45	3
0	18554	26.5	3
0	18555	26.5	3
0	18556	26.5	3
0	18557	26.5	3
0	18562	26.5	3
0	18563	26.5	3
0	18564	26.5	3
0	18565	26.5	3
0	18585	26.55	3
0	18586	26.55	3
0	18587	26.55	3
0	18588	26.55	3
0	18597	26.6	3
0	18598	26.6	3
0	18599	26.6	3
0	18600	26.6	3
0	18605	26.6	3
0	18606	26.6	3
0	18607	26.6	3
0	18608	26.6	3
0	18625	26.65	3
0	18626	26.65	3
0	18627	26.65	3
0	18628	26.65	3
0	18637	26.7	3
0	18638	26.7	3
0	18639	26.7	3
0	18640	26.7	3
0	18645	26.7	3
0	18646	26.7	3
0	18647	26.7	3
0	18648	26.7	3
0	18665	26.75	3
0	18666	26.75	3
0	18667	26.75	3
0	18668	26.75	3
0	18677	26.8	3
0	18678	26.8	3
0	18679	26.8	3
0	18680	26.8	3
0	18685	26.8	3
0	18686	26.8	3
0	18687	26.8	3
0	18688	26.8	3
0	18705	26.85	3
0	18706	26.85	3
0	18707	26.85	3
0	18708	26.85	3
0	18717	26.9	3
0	18718	26.9	3
0	18719	26.9	3
0	18720	26.9	3
0	18725	26.9	3
0	18726	26.9	3
0	18727	26.9	3
0	18728	26.9	3
0	18745	26.95	3
0	18746	26.95	3
0	18747	26.95	3
0	18748	26.95	3
0	18835	27	3
0	18836	27	3
0	18837	27	3
0	18838	27	3
0	18843	27	3
0	18844	27	3
0	18845	27	3
0	18846	27	3
0	18876	27.05	3
0	18877	27.05	3
0	18878	27.05	3
0	18879	27.05	3
0	18891	27.1	3
0	18892	27.1	3
0	18893	27.1	3
0	18894	27.1	3
0	18899	27.1	3
0	18900	27.1	3
0	18901	27.1	3
0	18902	27.1	3
0	18922	27.15	3
0	18923	27.15	3
0	18924	27.15	3
0	18925	27.15	3
0	18953	27.2	3
0	18954	27.2	3
0	18955	27.2	3
0	18956	27.2	3
0	18961	27.2	3
0	18962	27.2	3
0	18963	27.2	3
0	18964	27.2	3
0	18981	27.25	3
0	18982	27.25	3
0	18983	27.25	3
0	18984	27.25	3
0	18993	27.3	3
0	18994	27.3	3
0	18995	27.3	3
0	18996	27.3	3
0	19001	27.3	3
0	19002	27.3	3
0	19003	27.3	3
0	19004	27.3	3
0	19021	27.35	3
0	19022	27.35	3
0	19023	27.35	3
0	19024	27.35	3
0	19033	27.4	3
0	19034	27.4	3
0	19035	27.4	3
0	19036	27.4	3
0	19041	27.4	3
0	19042	27.4	3
0	19043	27.4	3
0	19044	27.4	3
0	19061	27.45	3
0	19062	27.45	3
0	19063	27.45	3
0	19064	27.45	3
0	19073	27.5	3
0	19074	27.5	3
0	19075	27.5	3
0	19076	27.5	3
0	19081	27.5	3
0	19082	27.5	3
0	19083	27.5	3
0	19084	27.5	3
0	19203	27.55	3
0	19204	27.55	3
0	19205	27.55	3
0	19206	27.55	3
0	19225	27.6	3
0	19226	27.6	3
0	19227	27.6	3
0	19228	27.6	3
0	19233	27.6	3
0	19234	27.6	3
0	19235	27.6	3
0	19236	27.6	3
0	19253	27.65	3
0	19254	27.65	3
0	19255	27.65	3
0	19256	27.65	3
0	19265	27.7	3
0	19266	27.7	3
0	19267	27.7	3
0	19268	27.7	3
0	19273	27.7	3
0	19274	27.7	3
0	19275	27.7	3
0	19276	27.7	3
0	19327	27.75	3
0	19328	27.75	3
0	19329	27.75	3
0	19330	27.75	3
0	19339	27.8	3
0	19340	27.8	3
0	19341	27.8	3
0	19342	27.8	3
0	19347	27.8	3
0	19348	27.8	3
0	19349	27.8	3
0	19350	27.8	3
0	19367	27.85	3
0	19368	27.85	3
0	19369	27.85	3
0	19370	27.85	3
0	19379	27.9	3
0	19380	27.9	3
0	19381	27.9	3
0	19382	27.9	3
0	19387	27.9	3
0	19388	27.9	3
0	19389	27.9	3
0	19390	27.9	3
0	19417	27.95	3
0	19418	27.95	3
0	19419	27.95	3
0	19420	27.95	3
0	19442	28	3
0	19443	28	3
0	19444	28	3
0	19445	28	3
0	19450	28	3
0	19451	28	3
0	19452	28	3
0	19453	28	3
0	19470	28.05	3
0	19471	28.05	3
0	19472	28.05	3
0	19473	28.05	3
0	19573	28.1	3
0	19574	28.1	3
0	19575	28.1	3
0	19576	28.1	3
0	19581	28.1	3
0	19582	28.1	3
0	19583	28.1	3
0	19584	28.1	3
0	19630	28.15	3
0	19631	28.15	3
0	19632	28.15	3
0	19633	28.15	3
0	19642	28.2	3
0	19643	28.2	3
0	19644	28.2	3
0	19645	28.2	3
0	19650	28.2	3
0	19651	28.2	3
0	19652	28.2	3
0	19653	28.2	3
0	19670	28.25	3
0	19671	28.25	3
0	19672	28.25	3
0	19673	28.25	3
0	19692	28.3	3
0	19693	28.3	3
0	19694	28.3	3
0	19695	28.3	3
0	19700	28.3	3
0	19701	28.3	3
0	19702	28.3	3
0	19703	28.3	3
0	19720	28.35	3
0	19721	28.35	3
0	19722	28.35	3
0	19723	28.35	3
0	19732	28.4	3
0	19733	28.4	3
0	19734	28.4	3
0	19735	28.4	3
0	19740	28.4	3
0	19741	28.4	3
0	19742	28.4	3
0	19743	28.4	3
0	19760	28.45	3
0	19761	28.45	3
0	19762	28.45	3
0	19763	28.45	3
0	19797	28.5	3
0	19798	28.5	3
0	19799	28.5	3
0	19800	28.5	3
0	19805	28.5	3
0	19806	28.5	3
0	19807	28.5	3
0	19808	28.5	3
0	19838	28.55	3
0	19839	28.55	3
0	19840	28.55	3
0	19841	28.55	3
0	19850	28.6	3
0	19851	28.6	3
0	19852	28.6	3
0	19853	28.6	3
0	19858	28.6	3
0	19859	28.6	3
0	19860	28.6	3
0	19861	28.6	3
0	19973	28.65	3
0	19974	28.65	3
0	19975	28.65	3
0	19976	28.65	3
0	20042	28.7	3
0	20043	28.7	3
0	20044	28.7	3
0	20045	28.7	3
0	20050	28.7	3
0	20051	28.7	3
0	20052	28.7	3
0	20053	28.7	3
0	20070	28.75	3
0	20071	28.75	3
0	20072	28.75	3
0	20073	28.75	3
0	20082	28.8	3
0	20083	28.8	3
0	20084	28.8	3
0	20085	28.8	3
0	20090	28.8	3
0	20091	28.8	3
0	20092	28.8	3
0	20093	28.8	3
0	20113	28.85	3
0	20114	28.85	3
0	20115	28.85	3
0	20116	28.85	3
0	20125	28.9	3
0	20126	28.9	3
0	20127	28.9	3
0	20128	28.9	3
0	20133	28.9	3
0	20134	28.9	3
0	20135	28.9	3
0	20136	28.9	3
0	20153	28.95	3
0	20154	28.95	3
0	20155	28.95	3
0	20156	28.95	3
0	20165	29	3
0	20166	29	3
0	20167	29	3
0	20168	29	3
0	20173	29	3
0	20174	29	3
0	20175	29	3
0	20176	29	3
0	20193	29.05	3
0	20194	29.05	3
0	20195	29.05	3
0	20196	29.05	3
0	20221	29.1	3
0	20222	29.1	3
0	20223	29.1	3
0	20224	29.1	3
0	20229	29.1	3
0	20230	29.1	3
0	20231	29.1	3
0	20232	29.1	3
0	20252	29.15	3
0	20253	29.15	3
0	20254	29.15	3
0	20255	29.15	3
0	20366	29.2	3
0	20367	29.2	3
0	20368	29.2	3
0	20369	29.2	3
0	20374	29.2	3
0	20375	29.2	3
0	20376	29.2	3
0	20377	29.2	3
0	20407	29.25	3
0	20408	29.25	3
0	20409	29.25	3
0	20410	29.25	3
0	20419	29.3	3
0	20420	29.3	3
0	20421	29.3	3
0	20422	29.3	3
0	20427	29.3	3
0	20428	29.3	3
0	20429	29.3	3
0	20430	29.3	3
0	20447	29.35	3
0	20448	29.35	3
0	20449	29.35	3
0	20450	29.35	3
0	20459	29.4	3
0	20460	29.4	3
0	20461	29.4	3
0	20462	29.4	3
0	20467	29.4	3
0	20468	29.4	3
0	20469	29.4	3
0	20470	29.4	3
0	20487	29.45	3
0	20488	29.45	3
0	20489	29.45	3
0	20490	29.45	3
0	20499	29.5	3
0	20500	29.5	3
0	20501	29.5	3
0	20502	29.5	3
0	20507	29.5	3
0	20508	29.5	3
0	20509	29.5	3
0	20510	29.5	3
0	20527	29.55	3
0	20528	29.55	3
0	20529	29.55	3
0	20530	29.55	3
0	20539	29.6	3
0	20540	29.6	3
0	20541	29.6	3
0	20542	29.6	3
0	20547	29.6	3
0	20548	29.6	3
0	20549	29.6	3
0	20550	29.6	3
0	20577	29.65	3
0	20578	29.65	3
0	20579	29.65	3
0	20580	29.65	3
0	20589	29.7	3
0	20590	29.7	3
0	20591	29.7	3
0	20592	29.7	3
0	20597	29.7	3
0	20598	29.7	3
0	20599	29.7	3
0	20600	29.7	3
0	20695	29.75	3
0	20696	29.75	3
0	20697	29.75	3
0	20698	29.75	3
0	20720	29.8	3
0	20721	29.8	3
0	20722	29.8	3
0	20723	29.8	3
0	20728	29.8	3
0	20729	29.8	3
0	20730	29.8	3
0	20731	29.8	3
0	20748	29.85	3
0	20749	29.85	3
0	20750	29.85	3
0	20751	29.85	3
0	20760	29.9	3
0	20761	29.9	3
0	20762	29.9	3
0	20763	29.9	3
0	20768	29.9	3
0	20769	29.9	3
0	20770	29.9	3
0	20771	29.9	3
0	20788	29.95	3
0	20789	29.95	3
0	20790	29.95	3
0	20791	29.95	3
0	20800	30	3
0	20801	30	3
0	20802	30	3
0	20803	30	3
0	20808	30	3
0	20809	30	3
0	20810	30	3
0	20811	30	3
0	20828	30.05	3
0	20829	30.05	3
0	20830	30.05	3
0	20831	30.05	3
0	20853	30.1	3
0	20854	30.1	3
0	20855	30.1	3
0	20856	30.1	3
0	20861	30.1	3
0	20862	30.1	3
0	20863	30.1	3
0	20864	30.1	3
0	20884	30.15	3
0	20885	30.15	3
0	20886	30.15	3
0	20887	30.15	3
0	20906	30.2	3
0	20907	30.2	3
0	20908	30.2	3
0	20909	30.2	3
0	20914	30.2	3
0	20915	30.2	3
0	20916	30.2	3
0	20917	30.2	3
0	20944	30.25	3
0	20945	30.25	3
0	20946	30.25	3
0	20947	30.25	3
0	21061	30.3	3
0	21062	30.3	3
0	21063	30.3	3
0	21064	30.3	3
0	21069	30.3	3
0	21070	30.3	3
0	21071	30.3	3
0	21072	30.3	3
0	21102	30.35	3
0	21103	30.35	3
0	21104	30.35	3
0	21105	30.35	3
0	21114	30.4	3
0	21115	30.4	3
0	21116	30.4	3
0	21117	30.4	3
0	21122	30.4	3
0	21123	30.4	3
0	21124	30.4	3
0	21125	30.4	3
0	21155	30.45	3
0	21156	30.45	3
0	21157	30.45	3
0	21158	30.45	3
0	21167	30.5	3
0	21168	30.5	3
0	21169	30.5	3
0	21170	30.5	3
0	21175	30.5	3
0	21176	30.5	3
0	21177	30.5	3
0	21178	30.5	3
0	21195	30.55	3
0	21196	30.55	3
0	21197	30.55	3
0	21198	30.55	3
0	21207	30.6	3
0	21208	30.6	3
0	21209	30.6	3
0	21210	30.6	3
0	21215	30.6	3
0	21216	30.6	3
0	21217	30.6	3
0	21218	30.6	3
0	21238	30.65	3
0	21239	30.65	3
0	21240	30.65	3
0	21241	30.65	3
0	21250	30.7	3
0	21251	30.7	3
0	21252	30.7	3
0	21253	30.7	3
0	21258	30.7	3
0	21259	30.7	3
0	21260	30.7	3
0	21261	30.7	3
0	21278	30.75	3
0	21279	30.75	3
0	21280	30.75	3
0	21281	30.75	3
0	21290	30.8	3
0	21291	30.8	3
0	21292	30.8	3
0	21293	30.8	3
0	21298	30.8	3
0	21299	30.8	3
0	21300	30.8	3
0	21301	30.8	3
0	21399	30.85	3
0	21400	30.85	3
0	21401	30.85	3
0	21402	30.85	3
0	21411	30.9	3
0	21412	30.9	3
0	21413	30.9	3
0	21414	30.9	3
0	21419	30.9	3
0	21420	30.9	3
0	21421	30.9	3
0	21422	30.9	3
0	21439	30.95	3
0	21440	30.95	3
0	21441	30.95	3
0	21442	30.95	3
0	21451	31	3
0	21452	31	3
0	21453	31	3
0	21454	31	3
0	21459	31	3
0	21460	31	3
0	21461	31	3
0	21462	31	3
0	21479	31.05	3
0	21480	31.05	3
0	21481	31.05	3
0	21482	31.05	3
0	21494	31.1	3
0	21495	31.1	3
0	21496	31.1	3
0	21497	31.1	3
0	21502	31.1	3
0	21503	31.1	3
0	21504	31.1	3
0	21505	31.1	3
0	21525	31.15	3
0	21526	31.15	3
0	21527	31.15	3
0	21528	31.15	3
0	21537	31.2	3
0	21538	31.2	3
0	21539	31.2	3
0	21540	31.2	3
0	21545	31.2	3
0	21546	31.2	3
0	21547	31.2	3
0	21548	31.2	3
0	21565	31.25	3
0	21566	31.25	3
0	21567	31.25	3
0	21568	31.25	3
0	21577	31.3	3
0	21578	31.3	3
0	21579	31.3	3
0	21580	31.3	3
0	21585	31.3	3
0	21586	31.3	3
0	21587	31.3	3
0	21588	31.3	3
0	21605	31.35	3
0	21606	31.35	3
0	21607	31.35	3
0	21608	31.35	3
0	21719	31.4	3
0	21720	31.4	3
0	21721	31.4	3
0	21722	31.4	3
0	21727	31.4	3
0	21728	31.4	3
0	21729	31.4	3
0	21730	31.4	3
0	21747	31.45	3
0	21748	31.45	3
0	21749	31.45	3
0	21750	31.45	3
0	21759	31.5	3
0	21760	31.5	3
0	21761	31.5	3
0	21762	31.5	3
0	21767	31.5	3
0	21768	31.5	3
0	21769	31.5	3
0	21770	31.5	3
0	21787	31.55	3
0	21788	31.55	3
0	21789	31.55	3
0	21790	31.55	3
0	21799	31.6	3
0	21800	31.6	3
0	21801	31.6	3
0	21802	31.6	3
0	21807	31.6	3
0	21808	31.6	3
0	21809	31.6	3
0	21810	31.6	3
0	21827	31.65	3
0	21828	31.65	3
0	21829	31.65	3
0	21830	31.65	3
0	21839	31.7	3
0	21840	31.7	3
0	21841	31.7	3
0	21842	31.7	3
0	21847	31.7	3
0	21848	31.7	3
0	21849	31.7	3
0	21850	31.7	3
0	21867	31.75	3
0	21868	31.75	3
0	21869	31.75	3
0	21870	31.75	3
0	21882	31.8	3
0	21883	31.8	3
0	21884	31.8	3
0	21885	31.8	3
0	21890	31.8	3
0	21891	31.8	3
0	21892	31.8	3
0	21893	31.8	3
0	21913	31.85	3
0	21914	31.85	3
0	21915	31.85	3
0	21916	31.85	3
0	21925	31.9	3
0	21926	31.9	3
0	21927	31.9	3
0	21928	31.9	3
0	21933	31.9	3
0	21934	31.9	3
0	21935	31.9	3
0	21936	31.9	3
0	22034	31.95	3
0	22035	31.95	3
0	22036	31.95	3
0	22037	31.95	3
0	22046	32	3
0	22047	32	3
0	22048	32	3
0	22049	32	3
0	22054	32	3
0	22055	32	3
0	22056	32	3
0	22057	32	3
0	22077	32.05	3
0	22078	32.05	3
0	22079	32.05	3
0	22080	32.05	3
0	22092	32.1	3
0	22093	32.1	3
0	22094	32.1	3
0	22095	32.1	3
0	22100	32.1	3
0	22101	32.1	3
0	22102	32.1	3
0	22103	32.1	3
0	22123	32.15	3
0	22124	32.15	3
0	22125	32.15	3
0	22126	32.15	3
0	22135	32.2	3
0	22136	32.2	3
0	22137	32.2	3
0	22138	32.2	3
0	22143	32.2	3
0	22144	32.2	3
0	22145	32.2	3
0	22146	32.2	3
0	22190	32.25	3
0	22191	32.25	3
0	22192	32.25	3
0	22193	32.25	3
0	22215	32.3	3
0	22216	32.3	3
0	22217	32.3	3
0	22218	32.3	3
0	22223	32.3	3
0	22224	32.3	3
0	22225	32.3	3
0	22226	32.3	3
0	22243	32.35	3
0	22244	32.35	3
0	22245	32.35	3
0	22246	32.35	3
0	22261	32.4	3
0	22262	32.4	3
0	22263	32.4	3
0	22264	32.4	3
0	22269	32.4	3
0	22270	32.4	3
0	22271	32.4	3
0	22272	32.4	3
0	22289	32.45	3
0	22290	32.45	3
0	22291	32.45	3
0	22292	32.45	3
0	22403	32.5	3
0	22404	32.5	3
0	22405	32.5	3
0	22406	32.5	3
0	22411	32.5	3
0	22412	32.5	3
0	22413	32.5	3
0	22414	32.5	3
0	22431	32.55	3
0	22432	32.55	3
0	22433	32.55	3
0	22434	32.55	3
0	22443	32.6	3
0	22444	32.6	3
0	22445	32.6	3
0	22446	32.6	3
0	22451	32.6	3
0	22452	32.6	3
0	22453	32.6	3
0	22454	32.6	3
0	22471	32.65	3
0	22472	32.65	3
0	22473	32.65	3
0	22474	32.65	3
0	22483	32.7	3
0	22484	32.7	3
0	22485	32.7	3
0	22486	32.7	3
0	22491	32.7	3
0	22492	32.7	3
0	22493	32.7	3
0	22494	32.7	3
0	22511	32.75	3
0	22512	32.75	3
0	22513	32.75	3
0	22514	32.75	3
0	22523	32.8	3
0	22524	32.8	3
0	22525	32.8	3
0	22526	32.8	3
0	22531	32.8	3
0	22532	32.8	3
0	22533	32.8	3
0	22534	32.8	3
0	22551	32.85	3
0	22552	32.85	3
0	22553	32.85	3
0	22554	32.85	3
0	22563	32.9	3
0	22564	32.9	3
0	22565	32.9	3
0	22566	32.9	3
0	22571	32.9	3
0	22572	32.9	3
0	22573	32.9	3
0	22574	32.9	3
0	22591	32.95	3
0	22592	32.95	3
0	22593	32.95	3
0	22594	32.95	3
0	22603	33	3
0	22604	33	3
0	22605	33	3
0	22606	33	3
0	22611	33	3
0	22612	33	3
0	22613	33	3
0	22614	33	3
0	22709	33.05	3
0	22710	33.05	3
0	22711	33.05	3
0	22712	33.05	3
0	22724	33.1	2
0	22725	33.1	3
0	22726	33.1	2
0	22727	33.1	3
0	22732	33.1	2
0	22733	33.1	3
0	22734	33.1	2
0	22735	33.1	3
0	22755	33.15	2
0	22756	33.15	3
0	22757	33.15	2
0	22758	33.15	3
0	22767	33.2	2
0	22768	33.2	3
0	22769	33.2	2
0	22770	33.2	3
0	22775	33.2	2
0	22776	33.2	3
0	22777	33.2	2
0	22778	33.2	3
0	22795	33.25	2
0	22796	33.25	3
0	22797	33.25	2
0	22798	33.25	3
0	22807	33.3	2
0	22808	33.3	3
0	22809	33.3	2
0	22810	33.3	3
0	22815	33.3	2
0	22816	33.3	3
0	22817	33.3	2
0	22818	33.3	3
0	22835	33.35	2
0	22836	33.35	3
0	22837	33.35	2
0	22838	33.35	3
0	22857	33.4	2
0	22858	33.4	3
0	22859	33.4	2
0	22860	33.4	3
0	22865	33.4	2
0	22866	33.4	3
0	22867	33.4	2
0	22868	33.4	3
0	22885	33.45	2
0	22886	33.45	3
0	22887	33.45	2
0	22888	33.45	3
0	22897	33.5	2
0	22898	33.5	3
0	22899	33.5	2
0	22900	33.5	3
0	22905	33.5	2
0	22906	33.5	3
0	22907	33.5	2
0	22908	33.5	3
0	22928	33.55	2
0	22929	33.55	3
0	22930	33.55	2
0	22931	33.55	3
0	23042	33.6	2
0	23043	33.6	3
0	23044	33.6	2
0	23045	33.6	3
0	23050	33.6	2
0	23051	33.6	3
0	23052	33.6	2
0	23053	33.6	3
0	23083	33.65	2
0	23084	33.65	3
0	23085	33.65	2
0	23086	33.65	3
0	23095	33.7	2
0	23096	33.7	3
0	23097	33.7	2
0	23098	33.7	3
0	23103	33.7	2
0	23104	33.7	3
0	23105	33.7	2
0	23106	33.7	3
0	23123	33.75	2
0	23124	33.75	3
0	23125	33.75	2
0	23126	33.75	3
0	23138	33.8	1
0	23139	33.8	3
0	23140	33.8	2
0	23141	33.8	2
0	23146	33.8	1
0	23147	33.8	3
0	23148	33.8	2
0	23149	33.8	2
0	23166	33.85	1
0	23167	33.85	3
0	23168	33.85	2
0	23169	33.85	2
0	23178	33.9	1
0	23179	33.9	3
0	23180	33.9	2
0	23181	33.9	2
0	23186	33.9	1
0	23187	33.9	3
0	23188	33.9	2
0	23189	33.9	2
0	23206	33.95	1
0	23207	33.95	3
0	23208	33.95	2
0	23209	33.95	2
0	23218	34	1
0	23219	34	3
0	23220	34	2
0	23221	34	2
0	23226	34	1
0	23227	34	3
0	23228	34	2
0	23229	34	2
0	23246	34.05	1
0	23247	34.05	3
0	23248	34.05	2
0	23249	34.05	2
0	23261	34.1	1
0	23262	34.1	3
0	23263	34.1	2
0	23264	34.1	2
0	23269	34.1	1
0	23270	34.1	3
0	23271	34.1	2
0	23272	34.1	2
0	23394	34.15	1
0	23395	34.15	3
0	23396	34.15	2
0	23397	34.15	2
0	23406	34.2	1
0	23407	34.2	3
0	23408	34.2	2
0	23409	34.2	2
0	23414	34.2	1
0	23415	34.2	3
0	23416	34.2	2
0	23417	34.2	2
0	23434	34.25	1
0	23435	34.25	3
0	23436	34.25	2
0	23437	34.25	2
0	23446	34.3	1
0	23447	34.3	3
0	23448	34.3	2
0	23449	34.3	2
0	23454	34.3	1
0	23455	34.3	3
0	23456	34.3	2
0	23457	34.3	2
0	23474	34.35	1
0	23475	34.35	3
0	23476	34.35	2
0	23477	34.35	2
0	23486	34.4	1
0	23487	34.4	3
0	23488	34.4	2
0	23489	34.4	2
0	23494	34.4	1
0	23495	34.4	3
0	23496	34.4	2
0	23497	34.4	2
0	23514	34.45	1
0	23515	34.45	3
0	23516	34.45	2
0	23517	34.45	2
0	23526	34.5	1
0	23527	34.5	3
0	23528	34.5	2
0	23529	34.5	2
0	23534	34.5	1
0	23535	34.5	3
0	23536	34.5	2
0	23537	34.5	2
0	23554	34.55	1
0	23555	34.55	3
0	23556	34.55	2
0	23557	34.55	2
0	23566	34.6	1
0	23567	34.6	3
0	23568	34.6	2
0	23569	34.6	2
0	23574	34.6	1
0	23575	34.6	3
0	23576	34.6	2
0	23577	34.6	2
0	23594	34.65	1
0	23595	34.65	3
0	23596	34.65	2
0	23597	34.65	2
0	23684	34.7	1
0	23685	34.7	3
0	23686	34.7	2
0	23687	34.7	2
0	23692	34.7	1
0	23693	34.7	3
0	23694	34.7	2
0	23695	34.7	2
0	23712	34.75	1
0	23713	34.75	3
0	23714	34.75	2
0	23715	34.75	2
0	23724	34.8	1
0	23725	34.8	3
0	23726	34.8	2
0	23727	34.8	2
0	23732	34.8	1
0	23733	34.8	3
0	23734	34.8	2
0	23735	34.8	2
0	23752	34.85	1
0	23753	34.85	3
0	23754	34.85	2
0	23755	34.85	2
0	23764	34.9	1
0	23765	34.9	3
0	23766	34.9	2
0	23767	34.9	2
0	23772	34.9	1
0	23773	34.9	3
0	23774	34.9	2
0	23775	34.9	2
0	23792	34.95	1
0	23793	34.95	3
0	23794	34.95	2
0	23795	34.95	2
0	23817	35	1
0	23818	35	3
0	23819	35	2
0	23820	35	2
0	23825	35	1
0	23826	35	3
0	23827	35	2
0	23828	35	2
0	23845	35.05	1
0	23846	35.05	3
0	23847	35.05	2
0	23848	35.05	2
0	23860	35.1	1
0	23861	35.1	3
0	23862	35.1	2
0	23863	35.1	2
0	23868	35.1	1
0	23869	35.1	3
0	23870	35.1	2
0	23871	35.1	2
0	23894	35.15	1
0	23895	35.15	3
0	23896	35.15	2
0	23897	35.15	2
0	23906	35.2	1
0	23907	35.2	3
0	23908	35.2	2
0	23909	35.2	2
0	23914	35.2	1
0	23915	35.2	3
0	23916	35.2	2
0	23917	35.2	2
0	24036	35.25	1
0	24037	35.25	3
0	24038	35.25	2
0	24039	35.25	2
0	24048	35.3	1
0	24049	35.3	3
0	24050	35.3	2
0	24051	35.3	2
0	24056	35.3	1
0	24057	35.3	3
0	24058	35.3	2
0	24059	35.3	2
0	24076	35.35	1
0	24077	35.35	3
0	24078	35.35	2
0	24079	35.35	2
0	24088	35.4	1
0	24089	35.4	3
0	24090	35.4	2
0	24091	35.4	2
0	24096	35.4	1
0	24097	35.4	3
0	24098	35.4	2
0	24099	35.4	2
0	24116	35.45	1
0	24117	35.45	3
0	24118	35.45	2
0	24119	35.45	2
0	24128	35.5	1
0	24129	35.5	3
0	24130	35.5	2
0	24131	35.5	2
0	24136	35.5	1
0	24137	35.5	3
0	24138	35.5	2
0	24139	35.5	2
0	24156	35.55	1
0	24157	35.55	3
0	24158	35.55	2
0	24159	35.55	2
0	24168	35.6	1
0	24169	35.6	3
0	24170	35.6	2
0	24171	35.6	2
0	24176	35.6	1
0	24177	35.6	3
0	24178	35.6	2
0	24179	35.6	2
0	24196	35.65	1
0	24197	35.65	3
0	24198	35.65	2
0	24199	35.65	2
0	24208	35.7	1
0	24209	35.7	3
0	24210	35.7	2
0	24211	35.7	2
0	24216	35.7	1
0	24217	35.7	3
0	24218	35.7	2
0	24219	35.7	2
0	24236	35.75	1
0	24237	35.75	3
0	24238	35.75	2
0	24239	35.75	2
0	24326	35.8	1
0	24327	35.8	3
0	24328	35.8	2
0	24329	35.8	2
0	24334	35.8	1
0	24335	35.8	3
0	24336	35.8	2
0	24337	35.8	2
0	24354	35.85	1
0	24355	35.85	3
0	24356	35.85	2
0	24357	35.85	2
0	24366	35.9	1
0	24367	35.9	3
0	24368	35.9	2
0	24369	35.9	2
0	24374	35.9	1
0	24375	35.9	3
0	24376	35.9	2
0	24377	35.9	2
0	24394	35.95	1
0	24395	35.95	3
0	24396	35.95	2
0	24397	35.95	2
0	24406	36	1
0	24407	36	3
0	24408	36	2
0	24409	36	2
0	24414	36	1
0	24415	36	3
0	24416	36	2
0	24417	36	2
0	24434	36.05	1
0	24435	36.05	3
0	24436	36.05	2
0	24437	36.05	2
0	24449	36.1	1
0	24450	36.1	3
0	24451	36.1	2
0	24452	36.1	2
0	24456	36.1	1
0	24457	36.1	3
0	24458	36.1	2
0	24459	36.1	2
0	24479	36.15	1
0	24480	36.15	3
0	24481	36.15	2
0	24482	36.15	2
0	24491	36.2	1
0	24492	36.2	3
0	24493	36.2	2
0	24494	36.2	2
0	24498	36.2	1
0	24499	36.2	3
0	24500	36.2	2
0	24501	36.2	2
0	24518	36.25	1
0	24519	36.25	3
0	24520	36.25	2
0	24521	36.25	2
0	24530	36.3	1
0	24531	36.3	3
0	24532	36.3	2
0	24533	36.3	2
0	24537	36.3	1
0	24538	36.3	3
0	24539	36.3	2
0	24540	36.3	2
0	24659	36.35	1
0	24660	36.35	3
0	24661	36.35	2
0	24662	36.35	2
0	24671	36.4	1
0	24672	36.4	3
0	24673	36.4	2
0	24674	36.4	2
0	24678	36.4	1
0	24679	36.4	3
0	24680	36.4	2
0	24681	36.4	2
0	24698	36.45	1
0	24699	36.45	3
0	24700	36.45	2
0	24701	36.45	2
0	24710	36.5	1
0	24711	36.5	3
0	24712	36.5	2
0	24713	36.5	2
0	24717	36.5	1
0	24718	36.5	3
0	24719	36.5	2
0	24720	36.5	2
0	24737	36.55	1
0	24738	36.55	3
0	24739	36.55	2
0	24740	36.55	2
0	24752	36.6	1
0	24753	36.6	3
0	24754	36.6	2
0	24755	36.6	2
0	24759	36.6	1
0	24760	36.6	3
0	24761	36.6	2
0	24762	36.6	2
0	24779	36.65	1
0	24780	36.65	3
0	24781	36.65	2
0	24782	36.65	2
0	24791	36.7	2
0	24792	36.7	3
0	24793	36.7	2
0	24794	36.7	3
0	24798	36.7	2
0	24799	36.7	3
0	24800	36.7	2
0	24801	36.7	3
0	24821	36.75	2
0	24822	36.75	3
0	24823	36.75	2
0	24824	36.75	3
0	24833	36.8	2
0	24834	36.8	3
0	24835	36.8	2
0	24836	36.8	3
0	24840	36.8	2
0	24841	36.8	3
0	24842	36.8	2
0	24843	36.8	3
0	24860	36.85	2
0	24861	36.85	3
0	24862	36.85	2
0	24863	36.85	3
0	24950	36.9	2
0	24951	36.9	3
0	24952	36.9	2
0	24953	36.9	3
0	24957	36.9	2
0	24958	36.9	3
0	24959	36.9	2
0	24960	36.9	3
0	24977	36.95	2
0	24978	36.95	3
0	24979	36.95	2
0	24980	36.95	3
0	24989	37	2
0	24990	37	3
0	24991	37	2
0	24992	37	3
0	24996	37	2
0	24997	37	3
0	24998	37	2
0	24999	37	3
0	25016	37.05	2
0	25017	37.05	3
0	25018	37.05	2
0	25019	37.05	3
0	25031	37.1	2
0	25032	37.1	3
0	25033	37.1	2
0	25034	37.1	3
0	25038	37.1	2
0	25039	37.1	3
0	25040	37.1	2
0	25041	37.1	3
0	25061	37.15	2
0	25062	37.15	3
0	25063	37.15	2
0	25064	37.15	3
0	25073	37.2	2
0	25074	37.2	3
0	25075	37.2	2
0	25076	37.2	3
0	25080	37.2	2
0	25081	37.2	3
0	25082	37.2	2
0	25083	37.2	3
0	25100	37.25	2
0	25101	37.25	3
0	25102	37.25	2
0	25103	37.25	3
0	25112	37.3	2
0	25113	37.3	3
0	25114	37.3	2
0	25115	37.3	3
0	25119	37.3	2
0	25120	37.3	3
0	25121	37.3	2
0	25122	37.3	3
0	25139	37.35	2
0	25140	37.35	3
0	25141	37.35	2
0	25142	37.35	3
0	25151	37.4	2
0	25152	37.4	3
0	25153	37.4	2
0	25154	37.4	3
0	25158	37.4	2
0	25159	37.4	3
0	25160	37.4	2
0	25161	37.4	3
0	25280	37.45	2
0	25281	37.45	3
0	25282	37.45	2
0	25283	37.45	3
0	25292	37.5	2
0	25293	37.5	3
0	25294	37.5	2
0	25295	37.5	3
0	25299	37.5	2
0	25300	37.5	3
0	25301	37.5	2
0	25302	37.5	3
0	25319	37.55	2
0	25320	37.55	3
0	25321	37.55	2
0	25322	37.55	3
0	25331	37.6	2
0	25332	37.6	3
0	25333	37.6	2
0	25334	37.6	3
0	25338	37.6	2
0	25339	37.6	3
0	25340	37.6	2
0	25341	37.6	3
0	25358	37.65	2
0	25359	37.65	3
0	25360	37.65	2
0	25361	37.65	3
0	25370	37.7	2
0	25371	37.7	3
0	25372	37.7	2
0	25373	37.7	3
0	25377	37.7	2
0	25378	37.7	3
0	25379	37.7	2
0	25380	37.7	3
0	25397	37.75	2
0	25398	37.75	3
0	25399	37.75	2
0	25400	37.75	3
0	25415	37.8	2
0	25416	37.8	3
0	25417	37.8	2
0	25418	37.8	3
0	25422	37.8	2
0	25423	37.8	3
0	25424	37.8	2
0	25425	37.8	3
0	25442	37.85	2
0	25443	37.85	3
0	25444	37.85	2
0	25445	37.85	3
0	25454	37.9	2
0	25455	37.9	3
0	25456	37.9	2
0	25457	37.9	3
0	25461	37.9	2
0	25462	37.9	3
0	25463	37.9	2
0	25464	37.9	3
0	25481	37.95	2
0	25482	37.95	3
0	25483	37.95	2
0	25484	37.95	3
0	25571	38	2
0	25572	38	3
0	25573	38	2
0	25574	38	3
0	25578	38	2
0	25579	38	3
0	25580	38	2
0	25581	38	3
0	25598	38.05	2
0	25599	38.05	3
0	25600	38.05	2
0	25601	38.05	3
0	25613	38.1	2
0	25614	38.1	3
0	25615	38.1	2
0	25616	38.1	3
0	25620	38.1	2
0	25621	38.1	3
0	25622	38.1	2
0	25623	38.1	3
0	25643	38.15	2
0	25644	38.15	3
0	25645	38.15	2
0	25646	38.15	3
0	25658	38.2	2
0	25659	38.2	3
0	25660	38.2	2
0	25661	38.2	3
0	25665	38.2	2
0	25666	38.2	3
0	25667	38.2	2
0	25668	38.2	3
0	25685	38.25	2
0	25686	38.25	3
0	25687	38.25	2
0	25688	38.25	3
0	25697	38.3	2
0	25698	38.3	3
0	25699	38.3	2
0	25700	38.3	3
0	25704	38.3	2
0	25705	38.3	3
0	25706	38.3	2
0	25707	38.3	3
0	25727	38.35	2
0	25728	38.35	3
0	25729	38.35	2
0	25730	38.35	3
0	25739	38.4	2
0	25740	38.4	3
0	25741	38.4	2
0	25742	38.4	3
0	25746	38.4	2
0	25747	38.4	3
0	25748	38.4	2
0	25749	38.4	3
0	25766	38.45	2
0	25767	38.45	3
0	25768	38.45	2
0	25769	38.45	3
0	25778	38.5	2
0	25779	38.5	3
0	25780	38.5	2
0	25781	38.5	3
0	25785	38.5	2
0	25786	38.5	3
0	25787	38.5	2
0	25788	38.5	3
0	25907	38.55	2
0	25908	38.55	3
0	25909	38.55	2
0	25910	38.55	3
0	25919	38.6	2
0	25920	38.6	3
0	25921	38.6	2
0	25922	38.6	3
0	25926	38.6	2
0	25927	38.6	3
0	25928	38.6	2
0	25929	38.6	3
0	25946	38.65	2
0	25947	38.65	3
0	25948	38.65	2
0	25949	38.65	3
0	25958	38.7	1
0	25959	38.7	2
0	25960	38.7	2
0	25961	38.7	3
0	25965	38.7	1
0	25966	38.7	2
0	25967	38.7	2
0	25968	38.7	3
0	25985	38.75	1
0	25986	38.75	2
0	25987	38.75	2
0	25988	38.75	3
0	25997	38.8	1
0	25998	38.8	2
0	25999	38.8	2
0	26000	38.8	3
0	26004	38.8	1
0	26005	38.8	2
0	26006	38.8	2
0	26007	38.8	3
0	26024	38.85	1
0	26025	38.85	2
0	26026	38.85	2
0	26027	38.85	3
0	26036	38.9	1
0	26037	38.9	2
0	26038	38.9	2
0	26039	38.9	3
0	26043	38.9	1
0	26044	38.9	2
0	26045	38.9	2
0	26046	38.9	3
0	26063	38.95	1
0	26064	38.95	2
0	26065	38.95	2
0	26066	38.95	3
0	26075	39	1
0	26076	39	2
0	26077	39	2
0	26078	39	3
0	26082	39	1
0	26083	39	2
0	26084	39	2
0	26085	39	3
0	26102	39.05	1
0	26103	39.05	2
0	26104	39.05	2
0	26105	39.05	3
0	26195	39.1	1
0	26196	39.1	2
0	26197	39.1	2
0	26198	39.1	3
0	26202	39.1	1
0	26203	39.1	2
0	26204	39.1	2
0	26205	39.1	3
0	26225	39.15	1
0	26226	39.15	2
0	26227	39.15	2
0	26228	39.15	3
0	26237	39.2	1
0	26238	39.2	2
0	26239	39.2	2
0	26240	39.2	3
0	26244	39.2	1
0	26245	39.2	2
0	26246	39.2	2
0	26247	39.2	3
0	26264	39.25	1
0	26265	39.25	2
0	26266	39.25	2
0	26267	39.25	3
0	26276	39.3	1
0	26277	39.3	2
0	26278	39.3	2
0	26279	39.3	3
0	26283	39.3	1
0	26284	39.3	2
0	26285	39.3	2
0	26286	39.3	3
0	26303	39.35	1
0	26304	39.35	2
0	26305	39.35	2
0	26306	39.35	3
0	26321	39.4	1
0	26322	39.4	2
0	26323	39.4	2
0	26324	39.4	3
0	26328	39.4	1
0	26329	39.4	2
0	26330	39.4	2
0	26331	39.4	3
0	26348	39.45	1
0	26349	39.45	2
0	26350	39.45	2
0	26351	39.45	3
0	26360	39.5	1
0	26361	39.5	2
0	26362	39.5	2
0	26363	39.5	3
0	26367	39.5	1
0	26368	39.5	2
0	26369	39.5	2
0	26370	39.5	3
0	26387	39.55	1
0	26388	39.55	2
0	26389	39.55	2
0	26390	39.55	3
0	26399	39.6	1
0	26400	39.6	2
0	26401	39.6	2
0	26402	39.6	3
0	26406	39.6	1
0	26407	39.6	2
0	26408	39.6	2
0	26409	39.6	3
0	26528	39.65	1
0	26529	39.65	2
0	26530	39.65	2
0	26531	39.65	3
0	26540	39.7	1
0	26541	39.7	2
0	26542	39.7	2
0	26543	39.7	3
0	26547	39.7	1
0	26548	39.7	2
0	26549	39.7	2
0	26550	39.7	3
0	26567	39.75	1
0	26568	39.75	2
0	26569	39.75	2
0	26570	39.75	3
0	26579	39.8	1
0	26580	39.8	2
0	26581	39.8	2
0	26582	39.8	3
0	26586	39.8	1
0	26587	39.8	2
0	26588	39.8	2
0	26589	39.8	3
0	26606	39.85	1
0	26607	39.85	2
0	26608	39.85	2
0	26609	39.85	3
0	26618	39.9	1
0	26619	39.9	2
0	26620	39.9	2
0	26621	39.9	3
0	26625	39.9	1
0	26626	39.9	2
0	26627	39.9	2
0	26628	39.9	3
0	26645	39.95	1
0	26646	39.95	2
0	26647	39.95	2
0	26648	39.95	3
0	26657	40	1
0	26658	40	2
0	26659	40	2
0	26660	40	3
0	26664	40	1
0	26665	40	2
0	26666	40	2
0	26667	40	3
0	26684	40.05	1
0	26685	40.05	2
0	26686	40.05	2
0	26687	40.05	3
0	26699	40.1	1
0	26700	40.1	2
0	26701	40.1	2
0	26702	40.1	3
0	26706	40.1	1
0	26707	40.1	2
0	26708	40.1	2
0	26709	40.1	3
0	26729	40.15	1
0	26730	40.15	2
0	26731	40.15	2
0	26732	40.15	3
0	26843	40.2	1
0	26844	40.2	2
0	26845	40.2	2
0	26846	40.2	3
0	26850	40.2	1
0	26851	40.2	2
0	26852	40.2	2
0	26853	40.2	3
0	26870	40.25	1
0	26871	40.25	2
0	26872	40.25	2
0	26873	40.25	3
0	26882	40.3	1
0	26883	40.3	2
0	26884	40.3	2
0	26885	40.3	3
0	26889	40.3	1
0	26890	40.3	2
0	26891	40.3	2
0	26892	40.3	3
0	26909	40.35	1
0	26910	40.35	2
0	26911	40.35	2
0	26912	40.35	3
0	26921	40.4	1
0	26922	40.4	2
0	26923	40.4	2
0	26924	40.4	3
0	26928	40.4	1
0	26929	40.4	2
0	26930	40.4	2
0	26931	40.4	3
0	26948	40.45	1
0	26949	40.45	2
0	26950	40.45	2
0	26951	40.45	3
0	26960	40.5	1
0	26961	40.5	2
0	26962	40.5	2
0	26963	40.5	3
0	26967	40.5	1
0	26968	40.5	2
0	26969	40.5	2
0	26970	40.5	3
0	26987	40.55	1
0	26988	40.55	2
0	26989	40.55	2
0	26990	40.55	3
0	26999	40.6	1
0	27000	40.6	2
0	27001	40.6	2
0	27002	40.6	3
0	27006	40.6	1
0	27007	40.6	2
0	27008	40.6	2
0	27009	40.6	3
0	27026	40.65	1
0	27027	40.65	2
0	27028	40.65	2
0	27029	40.65	3
0	27038	40.7	1
0	27039	40.7	2
0	27040	40.7	2
0	27041	40.7	3
0	27045	40.7	1
0	27046	40.7	2
0	27047	40.7	2
0	27048	40.7	3
0	27143	40.75	1
0	27144	40.75	2
0	27145	40.75	2
0	27146	40.75	3
0	27155	40.8	1
0	27156	40.8	2
0	27157	40.8	2
0	27158	40.8	3
0	27162	40.8	1
0	27163	40.8	2
0	27164	40.8	2
0	27165	40.8	3
0	27182	40.85	1
0	27183	40.85	2
0	27184	40.85	2
0	27185	40.85	3
0	27194	40.9	1
0	27195	40.9	2
0	27196	40.9	2
0	27197	40.9	3
0	27201	40.9	1
0	27202	40.9	2
0	27203	40.9	2
0	27204	40.9	3
0	27221	40.95	1
0	27222	40.95	2
0	27223	40.95	2
0	27224	40.95	3
0	27305	41	1
0	27306	41	2
0	27307	41	2
0	27308	41	3
0	27312	41	1
0	27313	41	2
0	27314	41	2
0	27315	41	3
0	27365	41.05	1
0	27366	41.05	2
0	27367	41.05	2
0	27368	41.05	3
0	27414	41.1	1
0	27415	41.1	2
0	27416	41.1	2
0	27417	41.1	3
0	27421	41.1	1
0	27422	41.1	2
0	27423	41.1	2
0	27424	41.1	3
0	27475	41.15	1
0	27476	41.15	2
0	27477	41.15	2
0	27478	41.15	3
0	27487	41.2	1
0	27488	41.2	2
0	27489	41.2	2
0	27490	41.2	3
0	27494	41.2	1
0	27495	41.2	2
0	27496	41.2	2
0	27497	41.2	3
0	27514	41.25	1
0	27515	41.25	2
0	27516	41.25	2
0	27517	41.25	3
0	27616	41.3	1
0	27617	41.3	2
0	27618	41.3	2
0	27619	41.3	3
0	27623	41.3	1
0	27624	41.3	2
0	27625	41.3	2
0	27626	41.3	3
0	27643	41.35	1
0	27644	41.35	2
0	27645	41.35	2
0	27646	41.35	3
0	27655	41.4	1
0	27656	41.4	2
0	27657	41.4	2
0	27658	41.4	3
0	27662	41.4	1
0	27663	41.4	2
0	27664	41.4	2
0	27665	41.4	3
0	27682	41.45	1
0	27683	41.45	2
0	27684	41.45	2
0	27685	41.45	3
0	27694	41.5	1
0	27695	41.5	2
0	27696	41.5	2
0	27697	41.5	3
0	27701	41.5	1
0	27702	41.5	2
0	27703	41.5	2
0	27704	41.5	3
0	27767	41.55	1
0	27768	41.55	2
0	27769	41.55	2
0	27770	41.55	3
0	27789	41.6	1
0	27790	41.6	2
0	27791	41.6	2
0	27792	41.6	3
0	27796	41.6	1
0	27797	41.6	2
0	27798	41.6	2
0	27799	41.6	3
0	27816	41.65	1
0	27817	41.65	2
0	27818	41.65	2
0	27819	41.65	3
0	27828	41.7	1
0	27829	41.7	2
0	27830	41.7	2
0	27831	41.7	3
0	27835	41.7	1
0	27836	41.7	2
0	27837	41.7	2
0	27838	41.7	3
0	27855	41.75	1
0	27856	41.75	2
0	27857	41.75	2
0	27858	41.75	3
0	27867	41.8	1
0	27868	41.8	2
0	27869	41.8	2
0	27870	41.8	3
0	27874	41.8	1
0	27875	41.8	2
0	27876	41.8	2
0	27877	41.8	3
0	27952	41.85	1
0	27953	41.85	2
0	27954	41.85	2
0	27955	41.85	3
0	27964	41.9	1
0	27965	41.9	2
0	27966	41.9	2
0	27967	41.9	3
0	27971	41.9	1
0	27972	41.9	2
0	27973	41.9	2
0	27974	41.9	3
0	27991	41.95	1
0	27992	41.95	2
0	27993	41.95	2
0	27994	41.95	3
0	28003	42	1
0	28004	42	2
0	28005	42	2
0	28006	42	3
0	28010	42	1
0	28011	42	2
0	28012	42	2
0	28013	42	3
0	28030	42.05	1
0	28031	42.05	2
0	28032	42.05	2
0	28033	42.05	3
0	28083	42.1	1
0	28084	42.1	2
0	28085	42.1	2
0	28086	42.1	3
0	28090	42.1	1
0	28091	42.1	2
0	28092	42.1	2
0	28093	42.1	3
0	28113	42.15	1
0	28114	42.15	2
0	28115	42.15	2
0	28116	42.15	3
0	28125	42.2	1
0	28126	42.2	2
0	28127	42.2	2
0	28128	42.2	3
0	28132	42.2	1
0	28133	42.2	2
0	28134	42.2	2
0	28135	42.2	3
0	28152	42.25	1
0	28153	42.25	2
0	28154	42.25	2
0	28155	42.25	3
0	28164	42.3	1
0	28165	42.3	2
0	28166	42.3	2
0	28167	42.3	3
0	28171	42.3	1
0	28172	42.3	2
0	28173	42.3	2
0	28174	42.3	3
0	28191	42.35	1
0	28192	42.35	2
0	28193	42.35	2
0	28194	42.35	3
0	28267	42.4	1
0	28268	42.4	2
0	28269	42.4	2
0	28270	42.4	3
0	28274	42.4	1
0	28275	42.4	2
0	28276	42.4	2
0	28277	42.4	3
0	28294	42.45	1
0	28295	42.45	2
0	28296	42.45	2
0	28297	42.45	3
0	28306	42.5	1
0	28307	42.5	2
0	28308	42.5	2
0	28309	42.5	3
0	28313	42.5	1
0	28314	42.5	2
0	28315	42.5	2
0	28316	42.5	3
0	28359	42.55	1
0	28360	42.55	2
0	28361	42.55	2
0	28362	42.55	3
0	28371	42.6	1
0	28372	42.6	2
0	28373	42.6	2
0	28374	42.6	3
0	28378	42.6	1
0	28379	42.6	2
0	28380	42.6	2
0	28381	42.6	3
0	28426	42.65	1
0	28427	42.65	2
0	28428	42.65	2
0	28429	42.65	3
0	28438	42.7	1
0	28439	42.7	2
0	28440	42.7	2
0	28441	42.7	3
0	28445	42.7	1
0	28446	42.7	2
0	28447	42.7	2
0	28448	42.7	3
0	28465	42.75	1
0	28466	42.75	2
0	28467	42.75	2
0	28468	42.75	3
0	28477	42.8	1
0	28478	42.8	2
0	28479	42.8	2
0	28480	42.8	3
0	28484	42.8	1
0	28485	42.8	2
0	28486	42.8	2
0	28487	42.8	3
0	28504	42.85	1
0	28505	42.85	2
0	28506	42.85	2
0	28507	42.85	3
0	28516	42.9	1
0	28517	42.9	2
0	28518	42.9	2
0	28519	42.9	3
0	28523	42.9	1
0	28524	42.9	2
0	28525	42.9	2
0	28526	42.9	3
0	28595	42.95	1
0	28596	42.95	2
0	28597	42.95	2
0	28598	42.95	3
0	28607	43	1
0	28608	43	2
0	28609	43	2
0	28610	43	3
0	28614	43	1
0	28615	43	2
0	28616	43	2
0	28617	43	3
0	28634	43.05	1
0	28635	43.05	2
0	28636	43.05	2
0	28637	43.05	3
0	28675	43.1	1
0	28676	43.1	2
0	28677	43.1	2
0	28678	43.1	3
0	28682	43.1	1
0	28683	43.1	2
0	28684	43.1	2
0	28685	43.1	3
0	28705	43.15	1
0	28706	43.15	2
0	28707	43.15	2
0	28708	43.15	3
0	28720	43.2	1
0	28721	43.2	2
0	28722	43.2	2
0	28723	43.2	3
0	28727	43.2	1
0	28728	43.2	2
0	28729	43.2	2
0	28730	43.2	3
0	28747	43.25	1
0	28748	43.25	2
0	28749	43.25	2
0	28750	43.25	3
0	28759	43.3	1
0	28760	43.3	2
0	28761	43.3	2
0	28762	43.3	3
0	28766	43.3	1
0	28767	43.3	2
0	28768	43.3	2
0	28769	43.3	3
0	28786	43.35	1
0	28787	43.35	2
0	28788	43.35	2
0	28789	43.35	3
0	28798	43.4	1
0	28799	43.4	2
0	28800	43.4	2
0	28801	43.4	3
0	28805	43.4	1
0	28806	43.4	2
0	28807	43.4	2
0	28808	43.4	3
0	28825	43.45	1
0	28826	43.45	2
0	28827	43.45	2
0	28828	43.45	3
0	28901	43.5	1
0	28902	43.5	2
0	28903	43.5	2
0	28904	43.5	3
0	28908	43.5	1
0	28909	43.5	2
0	28910	43.5	2
0	28911	43.5	3
0	28928	43.55	1
0	28929	43.55	2
0	28930	43.55	2
0	28931	43.55	3
0	28940	43.6	1
0	28941	43.6	2
0	28942	43.6	2
0	28943	43.6	3
0	28947	43.6	1
0	28948	43.6	2
0	28949	43.6	2
0	28950	43.6	3
0	29039	43.65	1
0	29040	43.65	2
0	29041	43.65	2
0	29042	43.65	3
0	29082	43.7	1
0	29083	43.7	2
0	29084	43.7	2
0	29085	43.7	3
0	29089	43.7	1
0	29090	43.7	2
0	29091	43.7	2
0	29092	43.7	3
0	29133	43.75	1
0	29134	43.75	2
0	29135	43.75	2
0	29136	43.75	3
0	29170	43.8	1
0	29171	43.8	2
0	29172	43.8	2
0	29173	43.8	3
0	29177	43.8	1
0	29178	43.8	2
0	29179	43.8	2
0	29180	43.8	3
0	29231	43.85	1
0	29232	43.85	2
0	29233	43.85	2
[...]
2	38997	59.469868229859	34827
2	39383	60.128750775139	34968
2	39511	60.378272688204	35109
2	39521	60.392112662288	35250
2	39558	60.405952636509	35391
2	39648	60.528349676608	35532
2	40107	61.478269352528	35673
2	40243	61.628351180769	35814
2	40541	62.178268162642	35955
2	40546	62.178351944371	36096
2	40560	62.19210815489	36237
2	41143	63.2880335087	36378
2	41413	63.778605727837	36519
2	41423	63.79244583641	36660
2	41466	63.806285945005	36801
2	41499	63.833966162256	36942
2	41714	64.22827264	37083
2	41724	64.24211264	37224
2	41746	64.25595264	37365
2	41857	64.378355076986	37506
2	41867	64.39219508687	37647
2	41904	64.406035096757	37788
2	41914	64.419875106646	37929
2	41924	64.433715116538	38070
2	42088	64.728744715649	38211
2	42098	64.742584677029	38352
2	42207	64.878623377241	38493
2	42217	64.892463486688	38634
2	42262	64.906303596134	38775
2	42291	64.92014370558	38916
2	42301	64.933983815026	39057
2	42493	65.278741164785	39198
2	42503	65.292581114847	39339
2	42542	65.306421064618	39480
2	42619	65.428632221293	39621
2	42629	65.442472330509	39762
2	43007	66.02835751026	39903
2	43017	66.042197520445	40044
2	43039	66.056037530632	40185
2	43049	66.069877540822	40326
2	43059	66.083717551014	40467
2	43069	66.097557561209	40608
2	43112	66.111397571407	40749
2	43122	66.125237581606	40890
2	43129	66.139077591809	41031
2	43151	66.152917602014	41172
2	43161	66.166757612222	41313
2	43171	66.180597622432	41454
2	43438	66.578358337643	41595
2	43448	66.59219834793	41736
2	43657	66.97827264	41877
2	43667	66.99211264	42018
2	43806	67.128359173277	42159
2	44121	67.67827264	42300
2	44131	67.69211264	42441
2	44404	68.13345286858	42582
2	44411	68.147292969107	42723
2	44433	68.161133069554	42864
2	44759	68.678682311855	43005
2	45179	69.32827264	43146
2	45184	69.32836259956	43287
2	45199	69.34211264	43428
2	45204	69.342202610367	43569
2	45230	69.356042621176	43710
2	45240	69.369882631987	43851
2	45250	69.383722642802	43992
2	45691	70.178670970948	44133
2	45701	70.192510835776	44274
2	45737	70.206350700476	44415
2	45744	70.220190565051	44556
2	45754	70.2340304295	44697
2	45779	70.261710158027	44838
2	45935	70.42827264	44979
2	46248	70.987940894802	45120
2	46285	71.001780905931	45261
2	46295	71.015620917063	45402
2	46305	71.029460928199	45543
2	46315	71.043300939336	45684
2	46337	71.057140950477	45825
2	46344	71.07098096162	45966
2	46638	71.537941339195	46107
2	46660	71.551781350434	46248
2	46983	72.092789160212	46389
2	47026	72.106629015179	46530
2	47036	72.120468870127	46671
2	47046	72.134308725059	46812
2	47056	72.148148579974	46953
2	47078	72.161988434874	47094
2	47088	72.175828289758	47235
2	47389	72.642781455041	47376
2	47408	72.65662130983	47517
2	47745	73.192582702409	47658
2	47750	73.192773767011	47799
2	47788	73.206422713979	47940
2	47793	73.206613622645	48081
2	47803	73.220262725552	48222
2	47813	73.234102737128	48363
2	47823	73.247942748707	48504
2	47845	73.261782760289	48645
2	47855	73.275622771873	48786
2	47865	73.28946278346	48927
2	47904	73.303302795051	49068
2	47915	73.317142806643	49209
2	48186	73.732975292352	49350
2	48798	74.828267847556	49491
2	48805	74.832976884824	49632
2	48810	74.833144208447	49773
2	48821	74.842107843553	49914
2	48827	74.846984071564	50055
2	48857	74.855947839718	50196
2	48867	74.869787836051	50337
2	49182	75.38297769258	50478
2	49192	75.396817704601	50619
2	49229	75.410657716625	50760
2	49530	75.933130752874	50901
2	49540	75.946970624057	51042
2	49562	75.960810495353	51183
2	49569	75.974650366762	51324
2	49579	75.988490238283	51465
2	49616	76.002330116947	51606
2	50159	77.028373860823	51747
2	50169	77.042213860823	51888
2	50193	77.056053860823	52029
2	50210	77.069893860823	52170
2	50220	77.083733860823	52311
2	50230	77.097573860823	52452
2	50272	77.111413860823	52593
2	50294	77.130175879656	52734
2	50304	77.144015888101	52875
2	50323	77.157855896457	53016
2	50333	77.171695904724	53157
2	50898	78.128373860823	53298
2	50908	78.142213860823	53439
2	50930	78.156053860823	53580
2	50940	78.169893860823	53721
2	50950	78.183733860823	53862
2	50960	78.197573860823	54003
2	51201	78.62851987971	54144
2	51211	78.642359802625	54285
2	51239	78.656199725575	54426
2	51278	78.670039648559	54567
2	51296	78.688417568253	54708
2	51332	78.702257588346	54849
2	51637	79.228373860823	54990
2	51647	79.233256652811	55131
2	51657	79.242213860823	55272
2	51679	79.256053860823	55413
2	51689	79.269893860823	55554
2	51699	79.283733860823	55695
2	52309	80.328279364131	55836
2	52314	80.328373860823	55977
2	52952	81.428373860823	56118
2	53499	82.478479097824	56259
2	53509	82.492319031121	56400
2	53551	82.506158964458	56541
2	53590	82.519998897834	56682
2	53600	82.53383883125	56823
2	53610	82.547678764704	56964
2	53641	82.561518698198	57105
2	53655	82.575358631731	57246
2	53763	82.728748973487	57387
2	53773	82.742588972029	57528
2	54278	83.628373860823	57669
2	54288	83.642213860823	57810
2	54310	83.656053860823	57951
2	54320	83.669893860823	58092
2	54330	83.683733860823	58233
2	54340	83.697573860823	58374
2	54385	83.711413860823	58515
2	54396	83.725253860823	58656
2	54406	83.739093860823	58797
2	54429	83.766773860823	58938
2	54439	83.780613860823	59079
2	54750	84.328373860823	59220
2	54760	84.342213860823	59361
2	55099	84.878750181717	59502
2	55109	84.892590192706	59643
2	55428	85.428373860823	59784
2	55438	85.442213860823	59925
2	55460	85.456053860823	60066
2	55604	85.728449413892	60207
2	55614	85.742289356412	60348
2	55636	85.75612929897	60489
2	55968	86.37832140583	60630
2	55978	86.392161475624	60771
2	56370	87.078373860823	60912
2	56380	87.092213860823	61053
2	56424	87.106053860823	61194
2	56435	87.119893860823	61335
2	56638	87.478333493317	61476
2	56727	87.628373860823	61617
2	57028	88.178373860823	61758
2	57181	88.433331695984	61899
2	57191	88.447171645898	62040
2	57213	88.461011595849	62181
2	57223	88.474851545836	62322
2	57233	88.48869149586	62463
2	57269	88.502531445921	62604
2	57332	88.578347354991	62745
2	57660	89.128355014085	62886
2	57748	89.292213860823	63027
2	57784	89.306053860823	63168
2	57794	89.319893860823	63309
2	57804	89.333733860823	63450
2	57814	89.347573860823	63591
2	57836	89.361413860823	63732
2	58110	89.833305107734	63873
2	58240	90.083326255486	64014
2	58250	90.097166255486	64155
2	58290	90.111006255486	64296
2	58377	90.228368368559	64437
2	58764	90.928373860823	64578
2	58774	90.942213860823	64719
2	58796	90.956053860823	64860
2	58806	90.969893860823	65001
2	59489	92.283326255486	65142
2	59499	92.297166255486	65283
2	59964	93.128373860823	65424
2	59974	93.142213860823	65565
3	650	1.156852969044	141
3	655	1.15685536	282
3	660	1.156892807505	423
3	680	1.170692966851	564
3	685	1.17069536	705
3	690	1.170732807505	846
3	1474	2.256853243533	987
3	1479	2.25685536	1128
3	1484	2.256892395659	1269
3	2268	3.356854389323	1410
3	2273	3.35685536	1551
3	2278	3.356892732264	1692
3	3062	4.45685536	1833
3	3067	4.456856382318	1974
3	3072	4.456893722462	2115
3	3856	5.55685536	2256
3	3861	5.556859242339	2397
3	3866	5.55689408	2538
3	4650	6.65685536	2679
3	4655	6.656863031423	2820
3	4660	6.65689408	2961
3	5076	7.20685536	3102
3	5081	7.206865305056	3243
3	5086	7.20689408	3384
3	5870	8.30685536	3525
3	5875	8.306870694722	3666
3	5880	8.30689408	3807
3	6664	9.40685536	3948
3	6669	9.406877351083	4089
3	6674	9.40689408	4230
3	7458	10.50685536	4371
3	7463	10.50688548402	4512
3	7468	10.50689408	4653
3	8252	11.60685536	4794
3	8257	11.60689408	4935
3	8262	11.60689534358	5076
3	8650	12.152294754998	5217
3	8661	12.15685536	5358
3	8666	12.15689408	5499
3	9432	13.25685536	5640
3	9433	13.25685536	5781
3	9504	13.378394894223	5922
3	10220	14.35685536	6063
3	10221	14.35685536	6204
3	10292	14.478426725946	6345
3	11014	15.45685536	6486
3	11015	15.45685536	6627
3	11748	16.552295380478	6768
3	11757	16.55685536	6909
3	11758	16.55685536	7050
3	11778	16.566135528162	7191
3	12158	17.10685536	7332
3	12176	17.12069536	7473
3	12545	17.65685536	7614
3	12546	17.65685536	7755
3	12956	18.20685536	7896
3	12957	18.20685536	8037
3	13383	18.828598256293	8178
3	13393	18.842438554219	8319
3	13756	19.30685536	8460
3	13757	19.30685536	8601
3	13800	19.378622121953	8742
3	14515	20.40685536	8883
3	14516	20.40685536	9024
3	14863	20.952383166054	9165
3	15207	21.49259264	9306
3	15255	21.50685536	9447
3	15278	21.52069536	9588
3	15288	21.528702629688	9729
3	15923	22.59259264	9870
3	15973	22.60685536	10011
3	15979	22.607068377301	10152
3	15993	22.620908671331	10293
3	16333	23.14259264	10434
3	16359	23.15221536	10575
3	16369	23.16605536	10716
3	16379	23.17989536	10857
3	16711	23.697419258003	10998
3	17066	24.242533670021	11139
3	17071	24.24257408	11280
3	17097	24.256373668753	11421
3	17336	24.738427839983	11562
3	17791	25.342533571721	11703
3	17796	25.34257408	11844
3	17822	25.35641408	11985
3	18061	25.833463950681	12126
3	18513	26.442533478918	12267
3	18518	26.44257408	12408
3	18546	26.456373477788	12549
3	19187	27.542533392179	12690
3	19192	27.54257408	12831
3	19313	27.728748982128	12972
3	19320	27.742588987341	13113
3	19792	28.478757182416	13254
3	19970	28.647591185269	13395
3	19996	28.65223392	13536
3	20017	28.66607392	13677
3	20027	28.67991392	13818
3	20350	29.192533274561	13959
3	20355	29.19257408	14100
3	21054	30.292533205149	14241
3	21094	30.30221536	14382
3	21703	31.392533143418	14523
3	21708	31.39257408	14664
3	22206	32.270568353985	14805
3	22387	32.492533089737	14946
3	22392	32.49257408	15087
3	23026	33.592533044437	15228
3	23031	33.59257408	15369
3	23378	34.142533025024	15510
3	23383	34.14257408	15651
3	24020	35.242532992844	15792
3	24025	35.24257408	15933
3	24643	36.342532955931	16074
3	24648	36.34257408	16215
3	25264	37.442533010973	16356
3	25269	37.442570958829	16497
3	25891	38.542533284817	16638
3	25896	38.542579757025	16779
3	26512	39.642533813929	16920
3	26517	39.642610950985	17061
3	26827	40.192534182907	17202
3	26832	40.19264030137	17343
3	27288	40.978586882147	17484
3	27298	40.992425897166	17625
3	27335	41.006264912374	17766
3	27345	41.020103927898	17907
3	27355	41.033942943863	18048
3	27362	41.047781960393	18189
3	27384	41.061620977608	18330
3	27394	41.075459995628	18471
3	27404	41.08929901457	18612
3	27447	41.103138034551	18753
3	27457	41.116977055682	18894
3	27468	41.144655101842	19035
3	27609	41.292535144055	19176
3	27753	41.528509577769	19317
3	27760	41.54234867885	19458
3	27782	41.556187783638	19599
3	28073	42.078457697393	19740
3	28260	42.38791467778	19881
3	28419	42.628529830494	20022
3	28894	43.48791467778	20163
3	29032	43.638188298225	20304
3	29054	43.652028312732	20445
3	29064	43.665868337032	20586
3	29075	43.693548415017	20727
3	29113	43.721228532199	20868
3	29123	43.735068605495	21009
3	29130	43.7489086886	21150
3	29152	43.762748781518	21291
3	29163	43.790428996812	21432
3	29200	43.8042691192	21573
3	29210	43.818109251422	21714
3	29220	43.831949393485	21855
3	29227	43.845789545397	21996
3	29246	43.859629707164	22137
3	29256	43.873469878794	22278
3	29488	44.228739545077	22419
3	29679	44.587896645323	22560
3	29797	44.778727572763	22701
3	29807	44.792567392648	22842
3	30021	45.137897389556	22983
3	30391	45.778538855752	23124
3	30401	45.792378954778	23265
3	30440	45.806219053953	23406
3	30450	45.820059153276	23547
3	30460	45.833899252748	23688
3	30470	45.847739352369	23829
3	30492	45.861579452139	23970
3	30502	45.875419552056	24111
3	30512	45.889259652122	24252
3	30551	45.903099752336	24393
3	30747	46.23789909443	24534
3	30811	46.328547086671	24675
3	31388	47.337901099841	24816
3	31452	47.428564927252	24957
3	31913	48.278562958696	25098
3	31923	48.292402578858	25239
3	31960	48.306242199225	25380
3	31970	48.320081819805	25521
3	32073	48.437903423812	25662
3	32465	49.128340797993	25803
3	32475	49.142180873167	25944
3	32497	49.156020948574	26085
3	32507	49.169861024216	26226
3	32517	49.183701100093	26367
3	32527	49.197541176206	26508
3	32630	49.378503679716	26649
3	33089	50.087907557036	26790
3	33134	50.101747595203	26931
3	33159	50.11558763343	27072
3	33169	50.128615225243	27213
3	33175	50.129427671718	27354
3	33187	50.143267710066	27495
3	33209	50.157107748476	27636
3	33219	50.170947786946	27777
3	33387	50.478451307144	27918
3	33517	50.637909121015	28059
3	33836	51.187910784624	28200
3	34030	51.578407504073	28341
3	34384	52.128388792384	28482
3	34499	52.287914428386	28623
3	35010	53.128675166761	28764
3	35020	53.142515297144	28905
3	35039	53.156355427413	29046
3	35049	53.170195557569	29187
3	35060	53.197875817536	29328
3	35108	53.211715947345	29469
3	35126	53.225556077036	29610
3	35142	53.24391093501	29751
3	35260	53.397598564761	29892
3	35766	54.328332256704	30033
3	35868	54.478328962872	30174
3	36487	55.578339401796	30315
3	36650	55.828720439372	30456
3	36657	55.842560531477	30597
3	36679	55.856400623312	30738
3	36689	55.870240714878	30879
3	36696	55.884080806173	31020
3	36771	55.978304923252	31161
3	36894	56.128343958673	31302
3	37114	56.528298961666	31443
3	37525	57.22834534427	31584
3	37601	57.328513606124	31725
3	37608	57.34235368778	31866
3	37630	57.356193769513	32007
3	37640	57.370033851323	32148
3	37650	57.383873933209	32289
3	37660	57.397714015173	32430
3	37807	57.628288935042	32571
3	38256	58.328346758821	32712
3	38266	58.342186767661	32853
3	38288	58.356026776503	32994
3	38298	58.369866785348	33135
3	38308	58.383706794195	33276
3	38318	58.397546803045	33417
3	38364	58.411386811896	33558
3	38387	58.443856141275	33699
3	38409	58.457696229017	33840
3	38419	58.471536316834	33981
3	38936	59.428276989377	34122
3	38941	59.428348202781	34263
3	38956	59.442116953962	34404
3	38961	59.442188211805	34545
3	38987	59.45602822083	34686
3	38997	59.469868229859	34827
3	39383	60.128750775139	34968
3	39511	60.378272688204	35109
3	39521	60.392112662288	35250
3	39558	60.405952636509	35391
3	39648	60.528349676608	35532
3	40107	61.478269352528	35673
3	40243	61.628351180769	35814
3	40541	62.178268162642	35955
3	40546	62.178351944371	36096
3	40560	62.19210815489	36237
3	41143	63.2880335087	36378
3	41413	63.778605727837	36519
3	41423	63.79244583641	36660
3	41466	63.806285945005	36801
3	41499	63.833966162256	36942
3	41714	64.22827264	37083
3	41724	64.24211264	37224
3	41746	64.25595264	37365
3	41857	64.378355076986	37506
3	41867	64.39219508687	37647
3	41904	64.406035096757	37788
3	41914	64.419875106646	37929
3	41924	64.433715116538	38070
3	42088	64.728744715649	38211
3	42098	64.742584677029	38352
3	42207	64.878623377241	38493
3	42217	64.892463486688	38634
3	42262	64.906303596134	38775
3	42291	64.92014370558	38916
3	42301	64.933983815026	39057
3	42493	65.278741164785	39198
3	42503	65.292581114847	39339
3	42542	65.306421064618	39480
3	42619	65.428632221293	39621
3	42629	65.442472330509	39762
3	43007	66.02835751026	39903
3	43017	66.042197520445	40044
3	43039	66.056037530632	40185
3	43049	66.069877540822	40326
3	43059	66.083717551014	40467
3	43069	66.097557561209	40608
3	43112	66.111397571407	40749
3	43122	66.125237581606	40890
3	43129	66.139077591809	41031
3	43151	66.152917602014	41172
3	43161	66.166757612222	41313
3	43171	66.180597622432	41454
3	43438	66.578358337643	41595
3	43448	66.59219834793	41736
3	43657	66.97827264	41877
3	43667	66.99211264	42018
3	43806	67.128359173277	42159
3	44121	67.67827264	42300
3	44131	67.69211264	42441
3	44404	68.13345286858	42582
3	44411	68.147292969107	42723
3	44433	68.161133069554	42864
3	44759	68.678682311855	43005
3	45179	69.32827264	43146
3	45184	69.32836259956	43287
3	45199	69.34211264	43428
3	45204	69.342202610367	43569
3	45230	69.356042621176	43710
3	45240	69.369882631987	43851
3	45250	69.383722642802	43992
3	45691	70.178670970948	44133
3	45701	70.192510835776	44274
3	45737	70.206350700476	44415
3	45744	70.220190565051	44556
3	45754	70.2340304295	44697
3	45779	70.261710158027	44838
3	45935	70.42827264	44979
3	46248	70.987940894802	45120
3	46285	71.001780905931	45261
3	46295	71.015620917063	45402
3	46305	71.029460928199	45543
3	46315	71.043300939336	45684
3	46337	71.057140950477	45825
3	46344	71.07098096162	45966
3	46638	71.537941339195	46107
3	46660	71.551781350434	46248
3	46983	72.092789160212	46389
3	47026	72.106629015179	46530
3	47036	72.120468870127	46671
3	47046	72.134308725059	46812
3	47056	72.148148579974	46953
3	47078	72.161988434874	47094
3	47088	72.175828289758	47235
3	47389	72.642781455041	47376
3	47408	72.65662130983	47517
3	47745	73.192582702409	47658
3	47750	73.192773767011	47799
3	47788	73.206422713979	47940
3	47793	73.206613622645	48081
3	47803	73.220262725552	48222
3	47813	73.234102737128	48363
3	47823	73.247942748707	48504
3	47845	73.261782760289	48645
3	47855	73.275622771873	48786
3	47865	73.28946278346	48927
3	47904	73.303302795051	49068
3	47915	73.317142806643	49209
3	48186	73.732975292352	49350
3	48798	74.828267847556	49491
3	48805	74.832976884824	49632
3	48810	74.833144208447	49773
3	48821	74.842107843553	49914
3	48827	74.846984071564	50055
3	48857	74.855947839718	50196
3	48867	74.869787836051	50337
3	49182	75.38297769258	50478
3	49192	75.396817704601	50619
3	49229	75.410657716625	50760
3	49530	75.933130752874	50901
3	49540	75.946970624057	51042
3	49562	75.960810495353	51183
3	49569	75.974650366762	51324
3	49579	75.988490238283	51465
3	49616	76.002330116947	51606
3	50159	77.028373860823	51747
3	50169	77.042213860823	51888
3	50193	77.056053860823	52029
3	50210	77.069893860823	52170
3	50220	77.083733860823	52311
3	50230	77.097573860823	52452
3	50272	77.111413860823	52593
3	50294	77.130175879656	52734
3	50304	77.144015888101	52875
3	50323	77.157855896457	53016
3	50333	77.171695904724	53157
3	50898	78.128373860823	53298
3	50908	78.142213860823	53439
3	50930	78.156053860823	53580
3	50940	78.169893860823	53721
3	50950	78.183733860823	53862
3	50960	78.197573860823	54003
3	51201	78.62851987971	54144
3	51211	78.642359802625	54285
3	51239	78.656199725575	54426
3	51278	78.670039648559	54567
3	51296	78.688417568253	54708
3	51332	78.702257588346	54849
3	51637	79.228373860823	54990
3	51647	79.233256652811	55131
3	51657	79.242213860823	55272
3	51679	79.256053860823	55413
3	51689	79.269893860823	55554
3	51699	79.283733860823	55695
3	52309	80.328279364131	55836
3	52314	80.328373860823	55977
3	52952	81.428373860823	56118
3	53499	82.478479097824	56259
3	53509	82.492319031121	56400
3	53551	82.506158964458	56541
3	53590	82.519998897834	56682
3	53600	82.53383883125	56823
3	53610	82.547678764704	56964
3	53641	82.561518698198	57105
3	53655	82.575358631731	57246
3	53763	82.728748973487	57387
3	53773	82.742588972029	57528
3	54278	83.628373860823	57669
3	54288	83.642213860823	57810
3	54310	83.656053860823	57951
3	54320	83.669893860823	58092
3	54330	83.683733860823	58233
3	54340	83.697573860823	58374
3	54385	83.711413860823	58515
3	54396	83.725253860823	58656
3	54406	83.739093860823	58797
3	54429	83.766773860823	58938
3	54439	83.780613860823	59079
3	54750	84.328373860823	59220
3	54760	84.342213860823	59361
3	55099	84.878750181717	59502
3	55109	84.892590192706	59643
3	55428	85.428373860823	59784
3	55438	85.442213860823	59925
3	55460	85.456053860823	60066
3	55604	85.728449413892	60207
3	55614	85.742289356412	60348
3	55636	85.75612929897	60489
3	55968	86.37832140583	60630
3	55978	86.392161475624	60771
3	56370	87.078373860823	60912
3	56380	87.092213860823	61053
3	56424	87.106053860823	61194
3	56435	87.119893860823	61335
3	56638	87.478333493317	61476
3	56727	87.628373860823	61617
3	57028	88.178373860823	61758
3	57181	88.433331695984	61899
3	57191	88.447171645898	62040
3	57213	88.461011595849	62181
3	57223	88.474851545836	62322
3	57233	88.48869149586	62463
3	57269	88.502531445921	62604
3	57332	88.578347354991	62745
3	57660	89.128355014085	62886
3	57748	89.292213860823	63027
3	57784	89.306053860823	63168
3	57794	89.319893860823	63309
3	57804	89.333733860823	63450
3	57814	89.347573860823	63591
3	57836	89.361413860823	63732
3	58110	89.833305107734	63873
3	58240	90.083326255486	64014
3	58250	90.097166255486	64155
3	58290	90.111006255486	64296
3	58377	90.228368368559	64437
3	58764	90.928373860823	64578
3	58774	90.942213860823	64719
3	58796	90.956053860823	64860
3	58806	90.969893860823	65001
3	59489	92.283326255486	65142
3	59499	92.297166255486	65283
3	59964	93.128373860823	65424
3	59974	93.142213860823	65565

