version 2
run C-0-20190928-17:32:10-27514
attr configname C
attr datetime 20190928-17:32:10
attr experiment C
attr inifile SimV2.ini
attr iterationvars ""
attr iterationvarsf ""
attr measurement ""
attr network NetworkTormV2
attr processid 27514
attr repetition 0
attr replication #0
attr resultdir results
attr runnumber 0
attr seedset 0
param **.mobility.traceFile "\"paths/C.movements\""
param **.numNodes 4
param **.wirelessIfc.wirelessRange 40m
param **.bluetoothIfc.wirelessRange 40m
param **.application.usedRNG 1
param **.application.dataGenerationInterval 1s
param **.application.dataSizeInBytes 10
param **.application.ttl 999999s
param **application.destinationAddr "\"Wf:00:00:00:00:02\""
param **application.destinationBTAddr "\"Bt:00:00:00:00:02\""
param **application.nodesThatGen true
param **application.nodesGenMsg "\"0,1,3\""
param **application.startMultipleMsg false
param **application.numMultipleMsg 100
param **application.hopsListSize 50
param **.application.endGeneratingMsg 90s
param **.numNodes 2
param **.application.usedRNG 1
param **.application.dataGenerationInterval 1ms
param **.application.dataSizeInBytes 10
param **.application.ttl 999999s
param **application.destinationAddr "\"Wf:00:00:00:00:02\""
param **application.destinationBTAddr "\"Bt:00:00:00:00:02\""
param **application.nodesThatGen true
param **application.nodesGenMsg "\"0\""
param **application.startMultipleMsg true
param **application.numMultipleMsg 100
param **application.hopsListSize 50
param **.application.endGeneratingMsg 999999s
param **.routingLayer "\"RoutingLQE\""
param **.routing.maximumCacheSize 5000byte
param **.routing.maximumHopCount 25
param **.routing.useTTL false
param **.routing.waitBFsend 0.5
param **.routing.max_age 999999s
param **.routing.gateway_list "\"Wf:00:00:00:00:02;0|.\""
param **.routing.actual_gateway "\"Wf:00:00:00:00:02\""
param **.neighboring.antiEntropyInterval 500ms
param **.neighboring.maximumRandomBackoffDuration 1s
param **.neighboring.delayPerDataMsg 0.1
param **neighboring.usedRNG 2
param **.neighboring.GWAddr "\"Wf:00:00:00:00:02\""
param **.neighboring.sendWifiFirst true
param **.neighboring.maxLengthGraph 20
param **.neighboring.max_age 999999s
param **.neighboring.max_absent_time 1s
param **.wirelessIfc.wirelessRange 15m
param **.wirelessIfc.neighbourScanInterval 50ms
param **.wirelessIfc.bandwidthBitRate 100000bps
param **.wirelessIfc.wirelessHeaderSize 32byte
param **.wirelessIfc.minSSI -90
param **.wirelessIfc.limitQueueTime 400ms
param **.wirelessIfc.my_limit_rate 0bps
param **.bluetoothIfc.wirelessRange 15m
param **.bluetoothIfc.neighbourScanInterval 100ms
param **.bluetoothIfc.bandwidthBitRate 100000bps
param **.bluetoothIfc.wirelessHeaderSize 16byte
param **.bluetoothIfc.minSSI -90
param **.mobilityType "\"BonnMotionMobility\""
param **.mobility.traceFile "\"paths/Moves2.movements\""
param **.mobility.is3D false
param **.mobility.nodeId -1

vector 0 NetworkTormV2 neighbourhoodSize:vector ETV
attr source neighbourhoodSize
vector 1 NetworkTormV2 deliveryRatio:vector ETV
attr source sum(totalDataBytesReceived)/sum(totalDataBytesReceivableByAllNodes)
vector 2 NetworkTormV2 dataBytesReceivedSum:vector ETV
attr source sum(dataBytesReceived)
vector 3 NetworkTormV2 totalBytesReceivedSum:vector ETV
attr source sum(totalBytesReceived)
0	13	0.05	3
0	14	0.05	3
0	15	0.05	3
0	16	0.05	3
0	30	0.1	3
0	32	0.1	3
0	33	0.1	3
0	35	0.1	3
0	40	0.1	3
0	41	0.1	3
0	42	0.1	3
0	43	0.1	3
0	67	0.15	3
0	68	0.15	3
0	69	0.15	3
0	70	0.15	3
0	83	0.2	3
0	84	0.2	3
0	85	0.2	3
0	86	0.2	3
0	91	0.2	3
0	92	0.2	3
0	93	0.2	3
0	94	0.2	3
0	115	0.25	3
0	116	0.25	3
0	117	0.25	3
0	118	0.25	3
0	131	0.3	3
0	132	0.3	3
0	133	0.3	3
0	134	0.3	3
0	139	0.3	3
0	140	0.3	3
0	141	0.3	3
0	142	0.3	3
0	163	0.35	3
0	164	0.35	3
0	165	0.35	3
0	166	0.35	3
0	179	0.4	3
0	180	0.4	3
0	181	0.4	3
0	182	0.4	3
0	187	0.4	3
0	188	0.4	3
0	189	0.4	3
0	190	0.4	3
0	211	0.45	3
0	212	0.45	3
0	213	0.45	3
0	214	0.45	3
0	227	0.5	3
0	228	0.5	3
0	229	0.5	3
0	230	0.5	3
0	235	0.5	3
0	236	0.5	3
0	237	0.5	3
0	238	0.5	3
0	259	0.55	3
0	260	0.55	3
0	261	0.55	3
0	262	0.55	3
0	275	0.6	3
0	276	0.6	3
0	277	0.6	3
0	278	0.6	3
0	283	0.6	3
0	284	0.6	3
0	285	0.6	3
0	286	0.6	3
0	307	0.65	3
0	308	0.65	3
0	309	0.65	3
0	310	0.65	3
0	323	0.7	3
0	324	0.7	3
0	325	0.7	3
0	326	0.7	3
0	331	0.7	3
0	332	0.7	3
0	333	0.7	3
0	334	0.7	3
0	355	0.75	3
0	356	0.75	3
0	357	0.75	3
0	358	0.75	3
0	371	0.8	3
0	372	0.8	3
0	373	0.8	3
0	374	0.8	3
0	379	0.8	3
0	380	0.8	3
0	381	0.8	3
0	382	0.8	3
0	403	0.85	3
0	404	0.85	3
0	405	0.85	3
0	406	0.85	3
0	419	0.9	3
0	420	0.9	3
0	421	0.9	3
0	422	0.9	3
0	427	0.9	3
0	428	0.9	3
0	429	0.9	3
0	430	0.9	3
0	451	0.95	3
0	452	0.95	3
0	453	0.95	3
0	454	0.95	3
0	467	1	3
0	468	1	3
0	469	1	3
0	470	1	3
0	475	1	3
0	476	1	3
0	477	1	3
0	478	1	3
0	499	1.05	3
0	500	1.05	3
0	501	1.05	3
0	502	1.05	3
0	518	1.1	3
0	519	1.1	3
0	520	1.1	3
0	521	1.1	3
0	526	1.1	3
0	527	1.1	3
0	528	1.1	3
0	529	1.1	3
0	733	1.15	3
0	734	1.15	3
0	735	1.15	3
0	736	1.15	3
0	809	1.2	3
0	810	1.2	3
0	811	1.2	3
0	812	1.2	3
0	817	1.2	3
0	818	1.2	3
0	819	1.2	3
0	820	1.2	3
0	841	1.25	3
0	842	1.25	3
0	843	1.25	3
0	844	1.25	3
0	857	1.3	3
0	858	1.3	3
0	859	1.3	3
0	860	1.3	3
0	865	1.3	3
0	866	1.3	3
0	867	1.3	3
0	868	1.3	3
0	889	1.35	3
0	890	1.35	3
0	891	1.35	3
0	892	1.35	3
0	905	1.4	3
0	906	1.4	3
0	907	1.4	3
0	908	1.4	3
0	913	1.4	3
0	914	1.4	3
0	915	1.4	3
0	916	1.4	3
0	937	1.45	3
0	938	1.45	3
0	939	1.45	3
0	940	1.45	3
0	953	1.5	3
0	954	1.5	3
0	955	1.5	3
0	956	1.5	3
0	961	1.5	3
0	962	1.5	3
0	963	1.5	3
0	964	1.5	3
0	985	1.55	3
0	986	1.55	3
0	987	1.55	3
0	988	1.55	3
0	1001	1.6	3
0	1002	1.6	3
0	1003	1.6	3
0	1004	1.6	3
0	1009	1.6	3
0	1010	1.6	3
0	1011	1.6	3
0	1012	1.6	3
0	1033	1.65	3
0	1034	1.65	3
0	1035	1.65	3
0	1036	1.65	3
0	1217	1.7	3
0	1218	1.7	3
0	1219	1.7	3
0	1220	1.7	3
0	1225	1.7	3
0	1226	1.7	3
0	1227	1.7	3
0	1228	1.7	3
0	1249	1.75	3
0	1250	1.75	3
0	1251	1.75	3
0	1252	1.75	3
0	1265	1.8	3
0	1266	1.8	3
0	1267	1.8	3
0	1268	1.8	3
0	1273	1.8	3
0	1274	1.8	3
0	1275	1.8	3
0	1276	1.8	3
0	1297	1.85	3
0	1298	1.85	3
0	1299	1.85	3
0	1300	1.85	3
0	1313	1.9	3
0	1314	1.9	3
0	1315	1.9	3
0	1316	1.9	3
0	1321	1.9	3
0	1322	1.9	3
0	1323	1.9	3
0	1324	1.9	3
0	1345	1.95	3
0	1346	1.95	3
0	1347	1.95	3
0	1348	1.95	3
0	1361	2	3
0	1362	2	3
0	1363	2	3
0	1364	2	3
0	1369	2	3
0	1370	2	3
0	1371	2	3
0	1372	2	3
0	1393	2.05	3
0	1394	2.05	3
0	1395	2.05	3
0	1396	2.05	3
0	1412	2.1	3
0	1413	2.1	3
0	1414	2.1	3
0	1415	2.1	3
0	1420	2.1	3
0	1421	2.1	3
0	1422	2.1	3
0	1423	2.1	3
0	1447	2.15	3
0	1448	2.15	3
0	1449	2.15	3
0	1450	2.15	3
0	1463	2.2	3
0	1464	2.2	3
0	1465	2.2	3
0	1466	2.2	3
0	1471	2.2	3
0	1472	2.2	3
0	1473	2.2	3
0	1474	2.2	3
0	1669	2.25	3
0	1670	2.25	3
0	1671	2.25	3
0	1672	2.25	3
0	1715	2.3	3
0	1716	2.3	3
0	1717	2.3	3
0	1718	2.3	3
0	1723	2.3	3
0	1724	2.3	3
0	1725	2.3	3
0	1726	2.3	3
0	1747	2.35	3
0	1748	2.35	3
0	1749	2.35	3
0	1750	2.35	3
0	1763	2.4	3
0	1764	2.4	3
0	1765	2.4	3
0	1766	2.4	3
0	1771	2.4	3
0	1772	2.4	3
0	1773	2.4	3
0	1774	2.4	3
0	1795	2.45	3
0	1796	2.45	3
0	1797	2.45	3
0	1798	2.45	3
0	1811	2.5	3
0	1812	2.5	3
0	1813	2.5	3
0	1814	2.5	3
0	1819	2.5	3
0	1820	2.5	3
0	1821	2.5	3
0	1822	2.5	3
0	1843	2.55	3
0	1844	2.55	3
0	1845	2.55	3
0	1846	2.55	3
0	1859	2.6	3
0	1860	2.6	3
0	1861	2.6	3
0	1862	2.6	3
0	1867	2.6	3
0	1868	2.6	3
0	1869	2.6	3
0	1870	2.6	3
0	1891	2.65	3
0	1892	2.65	3
0	1893	2.65	3
0	1894	2.65	3
0	1907	2.7	3
0	1908	2.7	3
0	1909	2.7	3
0	1910	2.7	3
0	1915	2.7	3
0	1916	2.7	3
0	1917	2.7	3
0	1918	2.7	3
0	1939	2.75	3
0	1940	2.75	3
0	1941	2.75	3
0	1942	2.75	3
0	2123	2.8	3
0	2124	2.8	3
0	2125	2.8	3
0	2126	2.8	3
0	2131	2.8	3
0	2132	2.8	3
0	2133	2.8	3
0	2134	2.8	3
0	2155	2.85	3
0	2156	2.85	3
0	2157	2.85	3
0	2158	2.85	3
0	2171	2.9	3
0	2172	2.9	3
0	2173	2.9	3
0	2174	2.9	3
0	2179	2.9	3
0	2180	2.9	3
0	2181	2.9	3
0	2182	2.9	3
0	2203	2.95	3
0	2204	2.95	3
0	2205	2.95	3
0	2206	2.95	3
0	2219	3	3
0	2220	3	3
0	2221	3	3
0	2222	3	3
0	2227	3	3
0	2228	3	3
0	2229	3	3
0	2230	3	3
0	2251	3.05	3
0	2252	3.05	3
0	2253	3.05	3
0	2254	3.05	3
0	2270	3.1	3
0	2271	3.1	3
0	2272	3.1	3
0	2273	3.1	3
0	2278	3.1	3
0	2279	3.1	3
0	2280	3.1	3
0	2281	3.1	3
0	2305	3.15	3
0	2306	3.15	3
0	2307	3.15	3
0	2308	3.15	3
0	2321	3.2	3
0	2322	3.2	3
0	2323	3.2	3
0	2324	3.2	3
0	2329	3.2	3
0	2330	3.2	3
0	2331	3.2	3
0	2332	3.2	3
0	2353	3.25	3
0	2354	3.25	3
0	2355	3.25	3
0	2356	3.25	3
0	2369	3.3	3
0	2370	3.3	3
0	2371	3.3	3
0	2372	3.3	3
0	2377	3.3	3
0	2378	3.3	3
0	2379	3.3	3
0	2380	3.3	3
0	2575	3.35	3
0	2576	3.35	3
0	2577	3.35	3
0	2578	3.35	3
0	2621	3.4	3
0	2622	3.4	3
0	2623	3.4	3
0	2624	3.4	3
0	2629	3.4	3
0	2630	3.4	3
0	2631	3.4	3
0	2632	3.4	3
0	2653	3.45	3
0	2654	3.45	3
0	2655	3.45	3
0	2656	3.45	3
0	2669	3.5	3
0	2670	3.5	3
0	2671	3.5	3
0	2672	3.5	3
0	2677	3.5	3
0	2678	3.5	3
0	2679	3.5	3
0	2680	3.5	3
0	2701	3.55	3
0	2702	3.55	3
0	2703	3.55	3
0	2704	3.55	3
0	2717	3.6	3
0	2718	3.6	3
0	2719	3.6	3
0	2720	3.6	3
0	2725	3.6	3
0	2726	3.6	3
0	2727	3.6	3
0	2728	3.6	3
0	2749	3.65	3
0	2750	3.65	3
0	2751	3.65	3
0	2752	3.65	3
0	2765	3.7	3
0	2766	3.7	3
0	2767	3.7	3
0	2768	3.7	3
0	2773	3.7	3
0	2774	3.7	3
0	2775	3.7	3
0	2776	3.7	3
0	2797	3.75	3
0	2798	3.75	3
0	2799	3.75	3
0	2800	3.75	3
0	2813	3.8	3
0	2814	3.8	3
0	2815	3.8	3
0	2816	3.8	3
0	2821	3.8	3
0	2822	3.8	3
0	2823	3.8	3
0	2824	3.8	3
0	2845	3.85	3
0	2846	3.85	3
0	2847	3.85	3
0	2848	3.85	3
0	3029	3.9	3
0	3030	3.9	3
0	3031	3.9	3
0	3032	3.9	3
0	3037	3.9	3
0	3038	3.9	3
0	3039	3.9	3
0	3040	3.9	3
0	3061	3.95	3
0	3062	3.95	3
0	3063	3.95	3
0	3064	3.95	3
0	3077	4	3
0	3078	4	3
0	3079	4	3
0	3080	4	3
0	3085	4	3
0	3086	4	3
0	3087	4	3
0	3088	4	3
0	3109	4.05	3
0	3110	4.05	3
0	3111	4.05	3
0	3112	4.05	3
0	3128	4.1	3
0	3129	4.1	3
0	3130	4.1	3
0	3131	4.1	3
0	3136	4.1	3
0	3137	4.1	3
0	3138	4.1	3
0	3139	4.1	3
0	3163	4.15	3
0	3164	4.15	3
0	3165	4.15	3
0	3166	4.15	3
0	3179	4.2	3
0	3180	4.2	3
0	3181	4.2	3
0	3182	4.2	3
0	3187	4.2	3
0	3188	4.2	3
0	3189	4.2	3
0	3190	4.2	3
0	3211	4.25	3
0	3212	4.25	3
0	3213	4.25	3
0	3214	4.25	3
0	3227	4.3	3
0	3228	4.3	3
0	3229	4.3	3
0	3230	4.3	3
0	3235	4.3	3
0	3236	4.3	3
0	3237	4.3	3
0	3238	4.3	3
0	3259	4.35	3
0	3260	4.35	3
0	3261	4.35	3
0	3262	4.35	3
0	3275	4.4	3
0	3276	4.4	3
0	3277	4.4	3
0	3278	4.4	3
0	3283	4.4	3
0	3284	4.4	3
0	3285	4.4	3
0	3286	4.4	3
0	3481	4.45	3
0	3482	4.45	3
0	3483	4.45	3
0	3484	4.45	3
0	3527	4.5	3
0	3528	4.5	3
0	3529	4.5	3
0	3530	4.5	3
0	3535	4.5	3
0	3536	4.5	3
0	3537	4.5	3
0	3538	4.5	3
0	3559	4.55	3
0	3560	4.55	3
0	3561	4.55	3
0	3562	4.55	3
0	3575	4.6	3
0	3576	4.6	3
0	3577	4.6	3
0	3578	4.6	3
0	3583	4.6	3
0	3584	4.6	3
0	3585	4.6	3
0	3586	4.6	3
0	3607	4.65	3
0	3608	4.65	3
0	3609	4.65	3
0	3610	4.65	3
0	3623	4.7	3
0	3624	4.7	3
0	3625	4.7	3
0	3626	4.7	3
0	3631	4.7	3
0	3632	4.7	3
0	3633	4.7	3
0	3634	4.7	3
0	3655	4.75	3
0	3656	4.75	3
0	3657	4.75	3
0	3658	4.75	3
0	3671	4.8	3
0	3672	4.8	3
0	3673	4.8	3
0	3674	4.8	3
0	3679	4.8	3
0	3680	4.8	3
0	3681	4.8	3
0	3682	4.8	3
0	3703	4.85	3
0	3704	4.85	3
0	3705	4.85	3
0	3706	4.85	3
0	3719	4.9	3
0	3720	4.9	3
0	3721	4.9	3
0	3722	4.9	3
0	3727	4.9	3
0	3728	4.9	3
0	3729	4.9	3
0	3730	4.9	3
0	3751	4.95	3
0	3752	4.95	3
0	3753	4.95	3
0	3754	4.95	3
0	3935	5	3
0	3936	5	3
0	3937	5	3
0	3938	5	3
0	3943	5	3
0	3944	5	3
0	3945	5	3
0	3946	5	3
0	3967	5.05	3
0	3968	5.05	3
0	3969	5.05	3
0	3970	5.05	3
0	3986	5.1	3
0	3987	5.1	3
0	3988	5.1	3
0	3989	5.1	3
0	3994	5.1	3
0	3995	5.1	3
0	3996	5.1	3
0	3997	5.1	3
0	4021	5.15	3
0	4022	5.15	3
0	4023	5.15	3
0	4024	5.15	3
0	4037	5.2	3
0	4038	5.2	3
0	4039	5.2	3
0	4040	5.2	3
0	4045	5.2	3
0	4046	5.2	3
0	4047	5.2	3
0	4048	5.2	3
0	4069	5.25	3
0	4070	5.25	3
0	4071	5.25	3
0	4072	5.25	3
0	4085	5.3	3
0	4086	5.3	3
0	4087	5.3	3
0	4088	5.3	3
0	4093	5.3	3
0	4094	5.3	3
0	4095	5.3	3
0	4096	5.3	3
0	4117	5.35	3
0	4118	5.35	3
0	4119	5.35	3
0	4120	5.35	3
0	4133	5.4	3
0	4134	5.4	3
0	4135	5.4	3
0	4136	5.4	3
0	4141	5.4	3
0	4142	5.4	3
0	4143	5.4	3
0	4144	5.4	3
0	4165	5.45	3
0	4166	5.45	3
0	4167	5.45	3
0	4168	5.45	3
0	4181	5.5	3
0	4182	5.5	3
0	4183	5.5	3
0	4184	5.5	3
0	4189	5.5	3
0	4190	5.5	3
0	4191	5.5	3
0	4192	5.5	3
0	4387	5.55	3
0	4388	5.55	3
0	4389	5.55	3
0	4390	5.55	3
0	4433	5.6	3
0	4434	5.6	3
0	4435	5.6	3
0	4436	5.6	3
0	4441	5.6	3
0	4442	5.6	3
0	4443	5.6	3
0	4444	5.6	3
0	4465	5.65	3
0	4466	5.65	3
0	4467	5.65	3
0	4468	5.65	3
0	4481	5.7	3
0	4482	5.7	3
0	4483	5.7	3
0	4484	5.7	3
0	4489	5.7	3
0	4490	5.7	3
0	4491	5.7	3
0	4492	5.7	3
0	4513	5.75	3
0	4514	5.75	3
0	4515	5.75	3
0	4516	5.75	3
0	4529	5.8	3
0	4530	5.8	3
0	4531	5.8	3
0	4532	5.8	3
0	4537	5.8	3
0	4538	5.8	3
0	4539	5.8	3
0	4540	5.8	3
0	4561	5.85	3
0	4562	5.85	3
0	4563	5.85	3
0	4564	5.85	3
0	4577	5.9	3
0	4578	5.9	3
0	4579	5.9	3
0	4580	5.9	3
0	4585	5.9	3
0	4586	5.9	3
0	4587	5.9	3
0	4588	5.9	3
0	4609	5.95	3
0	4610	5.95	3
0	4611	5.95	3
0	4612	5.95	3
0	4625	6	3
0	4626	6	3
0	4627	6	3
0	4628	6	3
0	4633	6	3
0	4634	6	3
0	4635	6	3
0	4636	6	3
0	4657	6.05	3
0	4658	6.05	3
0	4659	6.05	3
0	4660	6.05	3
0	4844	6.1	3
0	4845	6.1	3
0	4846	6.1	3
0	4847	6.1	3
0	4852	6.1	3
0	4853	6.1	3
0	4854	6.1	3
0	4855	6.1	3
0	4879	6.15	3
0	4880	6.15	3
0	4881	6.15	3
0	4882	6.15	3
0	4895	6.2	3
0	4896	6.2	3
0	4897	6.2	3
0	4898	6.2	3
0	4903	6.2	3
0	4904	6.2	3
0	4905	6.2	3
0	4906	6.2	3
0	4927	6.25	3
0	4928	6.25	3
0	4929	6.25	3
0	4930	6.25	3
0	4943	6.3	3
0	4944	6.3	3
0	4945	6.3	3
0	4946	6.3	3
0	4951	6.3	3
0	4952	6.3	3
0	4953	6.3	3
0	4954	6.3	3
0	4975	6.35	3
0	4976	6.35	3
0	4977	6.35	3
0	4978	6.35	3
0	4991	6.4	3
0	4992	6.4	3
0	4993	6.4	3
0	4994	6.4	3
0	4999	6.4	3
0	5000	6.4	3
0	5001	6.4	3
0	5002	6.4	3
0	5023	6.45	3
0	5024	6.45	3
0	5025	6.45	3
0	5026	6.45	3
0	5039	6.5	3
0	5040	6.5	3
0	5041	6.5	3
0	5042	6.5	3
0	5047	6.5	3
0	5048	6.5	3
0	5049	6.5	3
0	5050	6.5	3
0	5071	6.55	3
0	5072	6.55	3
0	5073	6.55	3
0	5074	6.55	3
0	5087	6.6	3
0	5088	6.6	3
0	5089	6.6	3
0	5090	6.6	3
0	5095	6.6	3
0	5096	6.6	3
0	5097	6.6	3
0	5098	6.6	3
0	5293	6.65	3
0	5294	6.65	3
0	5295	6.65	3
0	5296	6.65	3
0	5339	6.7	3
0	5340	6.7	3
0	5341	6.7	3
0	5342	6.7	3
0	5347	6.7	3
0	5348	6.7	3
0	5349	6.7	3
0	5350	6.7	3
0	5371	6.75	3
0	5372	6.75	3
0	5373	6.75	3
0	5374	6.75	3
0	5387	6.8	3
0	5388	6.8	3
0	5389	6.8	3
0	5390	6.8	3
0	5395	6.8	3
0	5396	6.8	3
0	5397	6.8	3
0	5398	6.8	3
0	5419	6.85	3
0	5420	6.85	3
0	5421	6.85	3
0	5422	6.85	3
0	5435	6.9	3
0	5436	6.9	3
0	5437	6.9	3
0	5438	6.9	3
0	5443	6.9	3
0	5444	6.9	3
0	5445	6.9	3
0	5446	6.9	3
0	5467	6.95	3
0	5468	6.95	3
0	5469	6.95	3
0	5470	6.95	3
0	5483	7	3
0	5484	7	3
0	5485	7	3
0	5486	7	3
0	5491	7	3
0	5492	7	3
0	5493	7	3
0	5494	7	3
0	5515	7.05	3
0	5516	7.05	3
0	5517	7.05	3
0	5518	7.05	3
0	5534	7.1	3
0	5535	7.1	3
0	5536	7.1	3
0	5537	7.1	3
0	5542	7.1	3
0	5543	7.1	3
0	5544	7.1	3
0	5545	7.1	3
0	5569	7.15	3
0	5570	7.15	3
0	5571	7.15	3
0	5572	7.15	3
0	5759	7.2	3
0	5760	7.2	3
0	5761	7.2	3
0	5762	7.2	3
0	5767	7.2	3
0	5768	7.2	3
0	5769	7.2	3
0	5770	7.2	3
0	5821	7.25	3
0	5822	7.25	3
0	5823	7.25	3
0	5824	7.25	3
0	5837	7.3	3
0	5838	7.3	3
0	5839	7.3	3
0	5840	7.3	3
0	5845	7.3	3
0	5846	7.3	3
0	5847	7.3	3
0	5848	7.3	3
0	5869	7.35	3
0	5870	7.35	3
0	5871	7.35	3
0	5872	7.35	3
0	5885	7.4	3
0	5886	7.4	3
0	5887	7.4	3
0	5888	7.4	3
0	5893	7.4	3
0	5894	7.4	3
0	5895	7.4	3
0	5896	7.4	3
0	5917	7.45	3
0	5918	7.45	3
0	5919	7.45	3
0	5920	7.45	3
0	5933	7.5	3
0	5934	7.5	3
0	5935	7.5	3
0	5936	7.5	3
0	5941	7.5	3
0	5942	7.5	3
0	5943	7.5	3
0	5944	7.5	3
0	5965	7.55	3
0	5966	7.55	3
0	5967	7.55	3
0	5968	7.55	3
0	5981	7.6	3
0	5982	7.6	3
0	5983	7.6	3
0	5984	7.6	3
0	5989	7.6	3
0	5990	7.6	3
0	5991	7.6	3
0	5992	7.6	3
0	6013	7.65	3
0	6014	7.65	3
0	6015	7.65	3
0	6016	7.65	3
0	6029	7.7	3
0	6030	7.7	3
0	6031	7.7	3
0	6032	7.7	3
0	6037	7.7	3
0	6038	7.7	3
0	6039	7.7	3
0	6040	7.7	3
0	6229	7.75	3
0	6230	7.75	3
0	6231	7.75	3
0	6232	7.75	3
0	6245	7.8	3
0	6246	7.8	3
0	6247	7.8	3
0	6248	7.8	3
0	6253	7.8	3
0	6254	7.8	3
0	6255	7.8	3
0	6256	7.8	3
0	6277	7.85	3
0	6278	7.85	3
0	6279	7.85	3
0	6280	7.85	3
0	6293	7.9	3
0	6294	7.9	3
0	6295	7.9	3
0	6296	7.9	3
0	6301	7.9	3
0	6302	7.9	3
0	6303	7.9	3
0	6304	7.9	3
0	6325	7.95	3
0	6326	7.95	3
0	6327	7.95	3
0	6328	7.95	3
0	6341	8	3
0	6342	8	3
0	6343	8	3
0	6344	8	3
0	6349	8	3
0	6350	8	3
0	6351	8	3
0	6352	8	3
0	6373	8.05	3
0	6374	8.05	3
0	6375	8.05	3
0	6376	8.05	3
0	6392	8.1	3
0	6393	8.1	3
0	6394	8.1	3
0	6395	8.1	3
0	6400	8.1	3
0	6401	8.1	3
0	6402	8.1	3
0	6403	8.1	3
0	6427	8.15	3
0	6428	8.15	3
0	6429	8.15	3
0	6430	8.15	3
0	6443	8.2	3
0	6444	8.2	3
0	6445	8.2	3
0	6446	8.2	3
0	6451	8.2	3
0	6452	8.2	3
0	6453	8.2	3
0	6454	8.2	3
0	6475	8.25	3
0	6476	8.25	3
0	6477	8.25	3
0	6478	8.25	3
0	6665	8.3	3
0	6666	8.3	3
0	6667	8.3	3
0	6668	8.3	3
0	6673	8.3	3
0	6674	8.3	3
0	6675	8.3	3
0	6676	8.3	3
0	6727	8.35	3
0	6728	8.35	3
0	6729	8.35	3
0	6730	8.35	3
0	6743	8.4	3
0	6744	8.4	3
0	6745	8.4	3
0	6746	8.4	3
0	6751	8.4	3
0	6752	8.4	3
0	6753	8.4	3
0	6754	8.4	3
0	6775	8.45	3
0	6776	8.45	3
0	6777	8.45	3
0	6778	8.45	3
0	6791	8.5	3
0	6792	8.5	3
0	6793	8.5	3
0	6794	8.5	3
0	6799	8.5	3
0	6800	8.5	3
0	6801	8.5	3
0	6802	8.5	3
0	6823	8.55	3
0	6824	8.55	3
0	6825	8.55	3
0	6826	8.55	3
0	6839	8.6	3
0	6840	8.6	3
0	6841	8.6	3
0	6842	8.6	3
0	6847	8.6	3
0	6848	8.6	3
0	6849	8.6	3
0	6850	8.6	3
0	6871	8.65	3
0	6872	8.65	3
0	6873	8.65	3
0	6874	8.65	3
0	6887	8.7	3
0	6888	8.7	3
0	6889	8.7	3
0	6890	8.7	3
0	6895	8.7	3
0	6896	8.7	3
0	6897	8.7	3
0	6898	8.7	3
0	6919	8.75	3
0	6920	8.75	3
0	6921	8.75	3
0	6922	8.75	3
0	6935	8.8	3
0	6936	8.8	3
0	6937	8.8	3
0	6938	8.8	3
0	6943	8.8	3
0	6944	8.8	3
0	6945	8.8	3
0	6946	8.8	3
0	7135	8.85	3
0	7136	8.85	3
0	7137	8.85	3
0	7138	8.85	3
0	7151	8.9	3
0	7152	8.9	3
0	7153	8.9	3
0	7154	8.9	3
0	7159	8.9	3
0	7160	8.9	3
0	7161	8.9	3
0	7162	8.9	3
0	7183	8.95	3
0	7184	8.95	3
0	7185	8.95	3
0	7186	8.95	3
0	7199	9	3
0	7200	9	3
0	7201	9	3
0	7202	9	3
0	7207	9	3
0	7208	9	3
0	7209	9	3
0	7210	9	3
0	7231	9.05	3
0	7232	9.05	3
0	7233	9.05	3
0	7234	9.05	3
0	7250	9.1	3
0	7251	9.1	3
0	7252	9.1	3
0	7253	9.1	3
0	7258	9.1	3
0	7259	9.1	3
0	7260	9.1	3
0	7261	9.1	3
0	7285	9.15	3
0	7286	9.15	3
0	7287	9.15	3
0	7288	9.15	3
0	7301	9.2	3
0	7302	9.2	3
0	7303	9.2	3
0	7304	9.2	3
0	7309	9.2	3
0	7310	9.2	3
0	7311	9.2	3
0	7312	9.2	3
0	7333	9.25	3
0	7334	9.25	3
0	7335	9.25	3
0	7336	9.25	3
0	7349	9.3	3
0	7350	9.3	3
0	7351	9.3	3
0	7352	9.3	3
0	7357	9.3	3
0	7358	9.3	3
0	7359	9.3	3
0	7360	9.3	3
0	7381	9.35	3
0	7382	9.35	3
0	7383	9.35	3
0	7384	9.35	3
0	7571	9.4	3
0	7572	9.4	3
0	7573	9.4	3
0	7574	9.4	3
0	7579	9.4	3
0	7580	9.4	3
0	7581	9.4	3
0	7582	9.4	3
0	7633	9.45	3
0	7634	9.45	3
0	7635	9.45	3
0	7636	9.45	3
0	7649	9.5	3
0	7650	9.5	3
0	7651	9.5	3
0	7652	9.5	3
0	7657	9.5	3
0	7658	9.5	3
0	7659	9.5	3
0	7660	9.5	3
0	7681	9.55	3
0	7682	9.55	3
0	7683	9.55	3
0	7684	9.55	3
0	7697	9.6	3
0	7698	9.6	3
0	7699	9.6	3
0	7700	9.6	3
0	7705	9.6	3
0	7706	9.6	3
0	7707	9.6	3
0	7708	9.6	3
0	7729	9.65	3
0	7730	9.65	3
0	7731	9.65	3
0	7732	9.65	3
0	7745	9.7	3
0	7746	9.7	3
0	7747	9.7	3
0	7748	9.7	3
0	7753	9.7	3
0	7754	9.7	3
0	7755	9.7	3
0	7756	9.7	3
0	7777	9.75	3
0	7778	9.75	3
0	7779	9.75	3
0	7780	9.75	3
0	7793	9.8	3
0	7794	9.8	3
0	7795	9.8	3
0	7796	9.8	3
0	7801	9.8	3
0	7802	9.8	3
0	7803	9.8	3
0	7804	9.8	3
0	7825	9.85	3
0	7826	9.85	3
0	7827	9.85	3
0	7828	9.85	3
0	7841	9.9	3
0	7842	9.9	3
0	7843	9.9	3
0	7844	9.9	3
0	7849	9.9	3
0	7850	9.9	3
0	7851	9.9	3
0	7852	9.9	3
0	8041	9.95	3
0	8042	9.95	3
0	8043	9.95	3
0	8044	9.95	3
0	8057	10	3
0	8058	10	3
0	8059	10	3
0	8060	10	3
0	8065	10	3
0	8066	10	3
0	8067	10	3
0	8068	10	3
0	8089	10.05	3
0	8090	10.05	3
0	8091	10.05	3
0	8092	10.05	3
0	8108	10.1	3
0	8109	10.1	3
0	8110	10.1	3
0	8111	10.1	3
0	8116	10.1	3
0	8117	10.1	3
0	8118	10.1	3
0	8119	10.1	3
0	8143	10.15	3
0	8144	10.15	3
0	8145	10.15	3
0	8146	10.15	3
0	8159	10.2	3
0	8160	10.2	3
0	8161	10.2	3
0	8162	10.2	3
0	8167	10.2	3
0	8168	10.2	3
0	8169	10.2	3
0	8170	10.2	3
0	8191	10.25	3
0	8192	10.25	3
0	8193	10.25	3
0	8194	10.25	3
0	8207	10.3	3
0	8208	10.3	3
0	8209	10.3	3
0	8210	10.3	3
0	8215	10.3	3
0	8216	10.3	3
0	8217	10.3	3
0	8218	10.3	3
0	8239	10.35	3
0	8240	10.35	3
0	8241	10.35	3
0	8242	10.35	3
0	8255	10.4	3
0	8256	10.4	3
0	8257	10.4	3
0	8258	10.4	3
0	8263	10.4	3
0	8264	10.4	3
0	8265	10.4	3
0	8266	10.4	3
0	8287	10.45	3
0	8288	10.45	3
0	8289	10.45	3
0	8290	10.45	3
0	8477	10.5	3
0	8478	10.5	3
0	8479	10.5	3
0	8480	10.5	3
0	8485	10.5	3
0	8486	10.5	3
0	8487	10.5	3
0	8488	10.5	3
0	8539	10.55	3
0	8540	10.55	3
0	8541	10.55	3
0	8542	10.55	3
0	8555	10.6	3
0	8556	10.6	3
0	8557	10.6	3
0	8558	10.6	3
0	8563	10.6	3
0	8564	10.6	3
0	8565	10.6	3
0	8566	10.6	3
0	8587	10.65	3
0	8588	10.65	3
0	8589	10.65	3
0	8590	10.65	3
0	8603	10.7	3
0	8604	10.7	3
0	8605	10.7	3
0	8606	10.7	3
0	8611	10.7	3
0	8612	10.7	3
0	8613	10.7	3
0	8614	10.7	3
0	8635	10.75	3
0	8636	10.75	3
0	8637	10.75	3
0	8638	10.75	3
0	8651	10.8	3
0	8652	10.8	3
0	8653	10.8	3
0	8654	10.8	3
0	8659	10.8	3
0	8660	10.8	3
0	8661	10.8	3
0	8662	10.8	3
0	8683	10.85	3
0	8684	10.85	3
0	8685	10.85	3
0	8686	10.85	3
0	8699	10.9	3
0	8700	10.9	3
0	8701	10.9	3
0	8702	10.9	3
0	8707	10.9	3
0	8708	10.9	3
0	8709	10.9	3
0	8710	10.9	3
0	8731	10.95	3
0	8732	10.95	3
0	8733	10.95	3
0	8734	10.95	3
0	8747	11	3
0	8748	11	3
0	8749	11	3
0	8750	11	3
0	8755	11	3
0	8756	11	3
0	8757	11	3
0	8758	11	3
0	8947	11.05	3
0	8948	11.05	3
0	8949	11.05	3
0	8950	11.05	3
0	8966	11.1	3
0	8967	11.1	3
0	8968	11.1	3
0	8969	11.1	3
0	8974	11.1	3
0	8975	11.1	3
0	8976	11.1	3
0	8977	11.1	3
0	9001	11.15	3
0	9002	11.15	3
0	9003	11.15	3
0	9004	11.15	3
0	9017	11.2	3
0	9018	11.2	3
0	9019	11.2	3
0	9020	11.2	3
0	9025	11.2	3
0	9026	11.2	3
0	9027	11.2	3
0	9028	11.2	3
0	9049	11.25	3
0	9050	11.25	3
0	9051	11.25	3
0	9052	11.25	3
0	9065	11.3	3
0	9066	11.3	3
0	9067	11.3	3
0	9068	11.3	3
0	9073	11.3	3
0	9074	11.3	3
0	9075	11.3	3
0	9076	11.3	3
0	9097	11.35	3
0	9098	11.35	3
0	9099	11.35	3
0	9100	11.35	3
0	9113	11.4	3
0	9114	11.4	3
0	9115	11.4	3
0	9116	11.4	3
0	9121	11.4	3
0	9122	11.4	3
0	9123	11.4	3
0	9124	11.4	3
0	9145	11.45	3
0	9146	11.45	3
0	9147	11.45	3
0	9148	11.45	3
0	9161	11.5	3
0	9162	11.5	3
0	9163	11.5	3
0	9164	11.5	3
0	9169	11.5	3
0	9170	11.5	3
0	9171	11.5	3
0	9172	11.5	3
0	9193	11.55	3
0	9194	11.55	3
0	9195	11.55	3
0	9196	11.55	3
0	9383	11.6	3
0	9384	11.6	3
0	9385	11.6	3
0	9386	11.6	3
0	9391	11.6	3
0	9392	11.6	3
0	9393	11.6	3
0	9394	11.6	3
0	9445	11.65	3
0	9446	11.65	3
0	9447	11.65	3
0	9448	11.65	3
0	9461	11.7	3
0	9462	11.7	3
0	9463	11.7	3
0	9464	11.7	3
0	9469	11.7	3
0	9470	11.7	3
0	9471	11.7	3
0	9472	11.7	3
0	9493	11.75	3
0	9494	11.75	3
0	9495	11.75	3
0	9496	11.75	3
0	9509	11.8	3
0	9510	11.8	3
0	9511	11.8	3
0	9512	11.8	3
0	9517	11.8	3
0	9518	11.8	3
0	9519	11.8	3
0	9520	11.8	3
0	9541	11.85	3
0	9542	11.85	3
0	9543	11.85	3
0	9544	11.85	3
0	9557	11.9	3
0	9558	11.9	3
0	9559	11.9	3
0	9560	11.9	3
0	9565	11.9	3
0	9566	11.9	3
0	9567	11.9	3
0	9568	11.9	3
0	9589	11.95	3
0	9590	11.95	3
0	9591	11.95	3
0	9592	11.95	3
0	9605	12	3
0	9606	12	3
0	9607	12	3
0	9608	12	3
0	9613	12	3
0	9614	12	3
0	9615	12	3
0	9616	12	3
0	9637	12.05	3
0	9638	12.05	3
0	9639	12.05	3
0	9640	12.05	3
0	9656	12.1	3
0	9657	12.1	3
0	9658	12.1	3
0	9659	12.1	3
0	9664	12.1	3
0	9665	12.1	3
0	9666	12.1	3
0	9667	12.1	3
0	9854	12.15	3
0	9855	12.15	3
0	9856	12.15	3
0	9857	12.15	3
0	9900	12.2	3
0	9901	12.2	3
0	9902	12.2	3
0	9903	12.2	3
0	9908	12.2	3
0	9909	12.2	3
0	9910	12.2	3
0	9911	12.2	3
0	9932	12.25	3
0	9933	12.25	3
0	9934	12.25	3
0	9935	12.25	3
0	9948	12.3	3
0	9949	12.3	3
0	9950	12.3	3
0	9951	12.3	3
0	9956	12.3	3
0	9957	12.3	3
0	9958	12.3	3
0	9959	12.3	3
0	9980	12.35	3
0	9981	12.35	3
0	9982	12.35	3
0	9983	12.35	3
0	9996	12.4	3
0	9997	12.4	3
0	9998	12.4	3
0	9999	12.4	3
0	10004	12.4	3
0	10005	12.4	3
0	10006	12.4	3
0	10007	12.4	3
0	10028	12.45	3
0	10029	12.45	3
0	10030	12.45	3
0	10031	12.45	3
0	10044	12.5	3
0	10045	12.5	3
0	10046	12.5	3
0	10047	12.5	3
0	10052	12.5	3
0	10053	12.5	3
0	10054	12.5	3
0	10055	12.5	3
0	10076	12.55	3
0	10077	12.55	3
0	10078	12.55	3
0	10079	12.55	3
0	10092	12.6	3
0	10093	12.6	3
0	10094	12.6	3
0	10095	12.6	3
0	10100	12.6	3
0	10101	12.6	3
0	10102	12.6	3
0	10103	12.6	3
0	10124	12.65	3
0	10125	12.65	3
0	10126	12.65	3
0	10127	12.65	3
0	10294	12.7	3
0	10295	12.7	3
0	10296	12.7	3
0	10297	12.7	3
0	10302	12.7	3
0	10303	12.7	3
0	10304	12.7	3
0	10305	12.7	3
0	10326	12.75	3
0	10327	12.75	3
0	10328	12.75	3
0	10329	12.75	3
0	10342	12.8	3
0	10343	12.8	3
0	10344	12.8	3
0	10345	12.8	3
0	10350	12.8	3
0	10351	12.8	3
0	10352	12.8	3
0	10353	12.8	3
0	10388	12.85	3
0	10389	12.85	3
0	10390	12.85	3
0	10391	12.85	3
0	10404	12.9	3
0	10405	12.9	3
0	10406	12.9	3
0	10407	12.9	3
0	10412	12.9	3
0	10413	12.9	3
0	10414	12.9	3
0	10415	12.9	3
0	10436	12.95	3
0	10437	12.95	3
0	10438	12.95	3
0	10439	12.95	3
0	10452	13	3
0	10453	13	3
0	10454	13	3
0	10455	13	3
0	10460	13	3
0	10461	13	3
0	10462	13	3
0	10463	13	3
0	10484	13.05	3
0	10485	13.05	3
0	10486	13.05	3
0	10487	13.05	3
0	10503	13.1	3
0	10504	13.1	3
0	10505	13.1	3
0	10506	13.1	3
0	10511	13.1	3
0	10512	13.1	3
0	10513	13.1	3
0	10514	13.1	3
0	10538	13.15	3
0	10539	13.15	3
0	10540	13.15	3
0	10541	13.15	3
0	10554	13.2	3
0	10555	13.2	3
0	10556	13.2	3
0	10557	13.2	3
0	10562	13.2	3
0	10563	13.2	3
0	10564	13.2	3
0	10565	13.2	3
0	10744	13.25	3
0	10745	13.25	3
0	10746	13.25	3
0	10747	13.25	3
0	10780	13.3	3
0	10781	13.3	3
0	10782	13.3	3
0	10783	13.3	3
0	10788	13.3	3
0	10789	13.3	3
0	10790	13.3	3
0	10791	13.3	3
0	10812	13.35	3
0	10813	13.35	3
0	10814	13.35	3
0	10815	13.35	3
0	10854	13.4	3
0	10855	13.4	3
0	10856	13.4	3
0	10857	13.4	3
0	10862	13.4	3
0	10863	13.4	3
0	10864	13.4	3
0	10865	13.4	3
0	10886	13.45	3
0	10887	13.45	3
0	10888	13.45	3
0	10889	13.45	3
0	10902	13.5	3
0	10903	13.5	3
0	10904	13.5	3
0	10905	13.5	3
0	10910	13.5	3
0	10911	13.5	3
0	10912	13.5	3
0	10913	13.5	3
0	10934	13.55	3
0	10935	13.55	3
0	10936	13.55	3
0	10937	13.55	3
0	10950	13.6	3
0	10951	13.6	3
0	10952	13.6	3
0	10953	13.6	3
0	10958	13.6	3
0	10959	13.6	3
0	10960	13.6	3
0	10961	13.6	3
0	10982	13.65	3
0	10983	13.65	3
0	10984	13.65	3
0	10985	13.65	3
0	10998	13.7	3
0	10999	13.7	3
0	11000	13.7	3
0	11001	13.7	3
0	11006	13.7	3
0	11007	13.7	3
0	11008	13.7	3
0	11009	13.7	3
0	11030	13.75	3
0	11031	13.75	3
0	11032	13.75	3
0	11033	13.75	3
0	11192	13.8	3
0	11193	13.8	3
0	11194	13.8	3
0	11195	13.8	3
0	11200	13.8	3
0	11201	13.8	3
0	11202	13.8	3
0	11203	13.8	3
0	11224	13.85	3
0	11225	13.85	3
0	11226	13.85	3
0	11227	13.85	3
0	11240	13.9	3
0	11241	13.9	3
0	11242	13.9	3
0	11243	13.9	3
0	11248	13.9	3
0	11249	13.9	3
0	11250	13.9	3
0	11251	13.9	3
0	11286	13.95	3
0	11287	13.95	3
0	11288	13.95	3
0	11289	13.95	3
0	11302	14	3
0	11303	14	3
0	11304	14	3
0	11305	14	3
0	11310	14	3
0	11311	14	3
0	11312	14	3
0	11313	14	3
0	11334	14.05	3
0	11335	14.05	3
0	11336	14.05	3
0	11337	14.05	3
0	11353	14.1	3
0	11354	14.1	3
0	11355	14.1	3
0	11356	14.1	3
0	11361	14.1	3
0	11362	14.1	3
0	11363	14.1	3
0	11364	14.1	3
0	11388	14.15	3
0	11389	14.15	3
0	11390	14.15	3
0	11391	14.15	3
0	11404	14.2	3
0	11405	14.2	3
0	11406	14.2	3
0	11407	14.2	3
0	11412	14.2	3
0	11413	14.2	3
0	11414	14.2	3
0	11415	14.2	3
0	11436	14.25	3
0	11437	14.25	3
0	11438	14.25	3
0	11439	14.25	3
0	11452	14.3	3
0	11453	14.3	3
0	11454	14.3	3
0	11455	14.3	3
0	11460	14.3	3
0	11461	14.3	3
0	11462	14.3	3
0	11463	14.3	3
0	11642	14.35	3
0	11643	14.35	3
0	11644	14.35	3
0	11645	14.35	3
0	11678	14.4	3
0	11679	14.4	3
0	11680	14.4	3
0	11681	14.4	3
0	11686	14.4	3
0	11687	14.4	3
0	11688	14.4	3
0	11689	14.4	3
0	11710	14.45	3
0	11711	14.45	3
0	11712	14.45	3
0	11713	14.45	3
0	11752	14.5	3
0	11753	14.5	3
0	11754	14.5	3
0	11755	14.5	3
0	11760	14.5	3
0	11761	14.5	3
0	11762	14.5	3
0	11763	14.5	3
0	11784	14.55	3
0	11785	14.55	3
0	11786	14.55	3
0	11787	14.55	3
0	11800	14.6	3
0	11801	14.6	3
0	11802	14.6	3
0	11803	14.6	3
0	11808	14.6	3
0	11809	14.6	3
0	11810	14.6	3
0	11811	14.6	3
0	11832	14.65	3
0	11833	14.65	3
0	11834	14.65	3
0	11835	14.65	3
0	11848	14.7	3
0	11849	14.7	3
0	11850	14.7	3
0	11851	14.7	3
0	11856	14.7	3
0	11857	14.7	3
0	11858	14.7	3
0	11859	14.7	3
0	11880	14.75	3
0	11881	14.75	3
0	11882	14.75	3
0	11883	14.75	3
0	11896	14.8	3
0	11897	14.8	3
0	11898	14.8	3
0	11899	14.8	3
0	11904	14.8	3
0	11905	14.8	3
0	11906	14.8	3
0	11907	14.8	3
0	11928	14.85	3
0	11929	14.85	3
0	11930	14.85	3
0	11931	14.85	3
0	12098	14.9	3
0	12099	14.9	3
0	12100	14.9	3
0	12101	14.9	3
0	12106	14.9	3
0	12107	14.9	3
0	12108	14.9	3
0	12109	14.9	3
0	12130	14.95	3
0	12131	14.95	3
0	12132	14.95	3
0	12133	14.95	3
0	12146	15	3
0	12147	15	3
0	12148	15	3
0	12149	15	3
0	12154	15	3
0	12155	15	3
0	12156	15	3
0	12157	15	3
0	12192	15.05	3
0	12193	15.05	3
0	12194	15.05	3
0	12195	15.05	3
0	12211	15.1	3
0	12212	15.1	3
0	12213	15.1	3
0	12214	15.1	3
0	12219	15.1	3
0	12220	15.1	3
0	12221	15.1	3
0	12222	15.1	3
0	12246	15.15	3
0	12247	15.15	3
0	12248	15.15	3
0	12249	15.15	3
0	12262	15.2	3
0	12263	15.2	3
0	12264	15.2	3
0	12265	15.2	3
0	12270	15.2	3
0	12271	15.2	3
0	12272	15.2	3
0	12273	15.2	3
0	12294	15.25	3
0	12295	15.25	3
0	12296	15.25	3
0	12297	15.25	3
0	12310	15.3	3
0	12311	15.3	3
0	12312	15.3	3
0	12313	15.3	3
0	12318	15.3	3
0	12319	15.3	3
0	12320	15.3	3
0	12321	15.3	3
0	12342	15.35	3
0	12343	15.35	3
0	12344	15.35	3
0	12345	15.35	3
0	12358	15.4	3
0	12359	15.4	3
0	12360	15.4	3
0	12361	15.4	3
0	12366	15.4	3
0	12367	15.4	3
0	12368	15.4	3
0	12369	15.4	3
0	12548	15.45	3
0	12549	15.45	3
0	12550	15.45	3
0	12551	15.45	3
0	12584	15.5	3
0	12585	15.5	3
0	12586	15.5	3
0	12587	15.5	3
0	12592	15.5	3
0	12593	15.5	3
0	12594	15.5	3
0	12595	15.5	3
0	12616	15.55	3
0	12617	15.55	3
0	12618	15.55	3
0	12619	15.55	3
0	12635	15.6	3
0	12636	15.6	3
0	12637	15.6	3
0	12638	15.6	3
0	12643	15.6	3
0	12644	15.6	3
0	12645	15.6	3
0	12646	15.6	3
0	12667	15.65	3
0	12668	15.65	3
0	12669	15.65	3
0	12670	15.65	3
0	12683	15.7	3
0	12684	15.7	3
0	12685	15.7	3
0	12686	15.7	3
0	12691	15.7	3
0	12692	15.7	3
0	12693	15.7	3
0	12694	15.7	3
0	12715	15.75	3
0	12716	15.75	3
0	12717	15.75	3
0	12718	15.75	3
0	12731	15.8	3
0	12732	15.8	3
0	12733	15.8	3
0	12734	15.8	3
0	12739	15.8	3
0	12740	15.8	3
0	12741	15.8	3
0	12742	15.8	3
0	12763	15.85	3
0	12764	15.85	3
0	12765	15.85	3
0	12766	15.85	3
0	12779	15.9	3
0	12780	15.9	3
0	12781	15.9	3
0	12782	15.9	3
0	12787	15.9	3
0	12788	15.9	3
0	12789	15.9	3
0	12790	15.9	3
0	12811	15.95	3
0	12812	15.95	3
0	12813	15.95	3
0	12814	15.95	3
0	12967	16	3
0	12968	16	3
0	12969	16	3
0	12970	16	3
0	12975	16	3
0	12976	16	3
0	12977	16	3
0	12978	16	3
0	12999	16.05	3
0	13000	16.05	3
0	13001	16.05	3
0	13002	16.05	3
0	13018	16.1	3
0	13019	16.1	3
0	13020	16.1	3
0	13021	16.1	3
0	13026	16.1	3
0	13027	16.1	3
0	13028	16.1	3
0	13029	16.1	3
0	13053	16.15	3
0	13054	16.15	3
0	13055	16.15	3
0	13056	16.15	3
0	13069	16.2	3
0	13070	16.2	3
0	13071	16.2	3
0	13072	16.2	3
0	13077	16.2	3
0	13078	16.2	3
0	13079	16.2	3
0	13080	16.2	3
0	13101	16.25	3
0	13102	16.25	3
0	13103	16.25	3
0	13104	16.25	3
0	13117	16.3	3
0	13118	16.3	3
0	13119	16.3	3
0	13120	16.3	3
0	13125	16.3	3
0	13126	16.3	3
0	13127	16.3	3
0	13128	16.3	3
0	13149	16.35	3
0	13150	16.35	3
0	13151	16.35	3
0	13152	16.35	3
0	13165	16.4	3
0	13166	16.4	3
0	13167	16.4	3
0	13168	16.4	3
0	13173	16.4	3
0	13174	16.4	3
0	13175	16.4	3
0	13176	16.4	3
0	13197	16.45	3
0	13198	16.45	3
0	13199	16.45	3
0	13200	16.45	3
0	13213	16.5	3
0	13214	16.5	3
0	13215	16.5	3
0	13216	16.5	3
0	13221	16.5	3
0	13222	16.5	3
0	13223	16.5	3
0	13224	16.5	3
0	13393	16.55	3
0	13394	16.55	3
0	13395	16.55	3
0	13396	16.55	3
0	13449	16.6	3
0	13450	16.6	3
0	13451	16.6	3
0	13452	16.6	3
0	13457	16.6	3
0	13458	16.6	3
0	13459	16.6	3
0	13460	16.6	3
0	13481	16.65	3
0	13482	16.65	3
0	13483	16.65	3
0	13484	16.65	3
0	13497	16.7	3
0	13498	16.7	3
0	13499	16.7	3
0	13500	16.7	3
0	13505	16.7	3
0	13506	16.7	3
0	13507	16.7	3
0	13508	16.7	3
0	13529	16.75	3
0	13530	16.75	3
0	13531	16.75	3
0	13532	16.75	3
0	13545	16.8	3
0	13546	16.8	3
0	13547	16.8	3
0	13548	16.8	3
0	13553	16.8	3
0	13554	16.8	3
0	13555	16.8	3
0	13556	16.8	3
0	13577	16.85	3
0	13578	16.85	3
0	13579	16.85	3
0	13580	16.85	3
0	13593	16.9	3
0	13594	16.9	3
0	13595	16.9	3
0	13596	16.9	3
0	13601	16.9	3
0	13602	16.9	3
0	13603	16.9	3
0	13604	16.9	3
0	13625	16.95	3
0	13626	16.95	3
0	13627	16.95	3
0	13628	16.95	3
0	13641	17	3
0	13642	17	3
0	13643	17	3
0	13644	17	3
0	13649	17	3
0	13650	17	3
0	13651	17	3
0	13652	17	3
0	13676	17.05	3
0	13677	17.05	3
0	13678	17.05	3
0	13679	17.05	3
0	13835	17.1	3
0	13836	17.1	3
0	13837	17.1	3
0	13838	17.1	3
0	13843	17.1	3
0	13844	17.1	3
0	13845	17.1	3
0	13846	17.1	3
0	13900	17.15	3
0	13901	17.15	3
0	13902	17.15	3
0	13903	17.15	3
0	13916	17.2	3
0	13917	17.2	3
0	13918	17.2	3
0	13919	17.2	3
0	13924	17.2	3
0	13925	17.2	3
0	13926	17.2	3
0	13927	17.2	3
0	13948	17.25	3
0	13949	17.25	3
0	13950	17.25	3
0	13951	17.25	3
0	13964	17.3	3
0	13965	17.3	3
0	13966	17.3	3
0	13967	17.3	3
0	13972	17.3	3
0	13973	17.3	3
0	13974	17.3	3
0	13975	17.3	3
0	13996	17.35	3
0	13997	17.35	3
0	13998	17.35	3
0	13999	17.35	3
0	14012	17.4	3
0	14013	17.4	3
0	14014	17.4	3
0	14015	17.4	3
0	14020	17.4	3
0	14021	17.4	3
0	14022	17.4	3
0	14023	17.4	3
0	14044	17.45	3
0	14045	17.45	3
0	14046	17.45	3
0	14047	17.45	3
0	14060	17.5	3
0	14061	17.5	3
0	14062	17.5	3
0	14063	17.5	3
0	14068	17.5	3
0	14069	17.5	3
0	14070	17.5	3
0	14071	17.5	3
0	14092	17.55	3
0	14093	17.55	3
0	14094	17.55	3
0	14095	17.55	3
0	14118	17.6	3
0	14119	17.6	3
0	14120	17.6	3
0	14121	17.6	3
0	14126	17.6	3
0	14127	17.6	3
0	14128	17.6	3
0	14129	17.6	3
0	14294	17.65	3
0	14295	17.65	3
0	14296	17.65	3
0	14297	17.65	3
0	14330	17.7	3
0	14331	17.7	3
0	14332	17.7	3
0	14333	17.7	3
0	14338	17.7	3
0	14339	17.7	3
0	14340	17.7	3
0	14341	17.7	3
0	14372	17.75	3
0	14373	17.75	3
0	14374	17.75	3
0	14375	17.75	3
0	14388	17.8	3
0	14389	17.8	3
0	14390	17.8	3
0	14391	17.8	3
0	14396	17.8	3
0	14397	17.8	3
0	14398	17.8	3
0	14399	17.8	3
0	14420	17.85	3
0	14421	17.85	3
0	14422	17.85	3
0	14423	17.85	3
0	14436	17.9	3
0	14437	17.9	3
0	14438	17.9	3
0	14439	17.9	3
0	14444	17.9	3
0	14445	17.9	3
0	14446	17.9	3
0	14447	17.9	3
0	14468	17.95	3
0	14469	17.95	3
0	14470	17.95	3
0	14471	17.95	3
0	14484	18	3
0	14485	18	3
0	14486	18	3
0	14487	18	3
0	14492	18	3
0	14493	18	3
0	14494	18	3
0	14495	18	3
0	14516	18.05	3
0	14517	18.05	3
0	14518	18.05	3
0	14519	18.05	3
0	14535	18.1	3
0	14536	18.1	3
0	14537	18.1	3
0	14538	18.1	3
0	14543	18.1	3
0	14544	18.1	3
0	14545	18.1	3
0	14546	18.1	3
0	14584	18.15	3
0	14585	18.15	3
0	14586	18.15	3
0	14587	18.15	3
0	14744	18.2	3
0	14745	18.2	3
0	14746	18.2	3
0	14747	18.2	3
0	14752	18.2	3
0	14753	18.2	3
0	14754	18.2	3
0	14755	18.2	3
0	14796	18.25	3
0	14797	18.25	3
0	14798	18.25	3
0	14799	18.25	3
0	14822	18.3	3
0	14823	18.3	3
0	14824	18.3	3
0	14825	18.3	3
0	14830	18.3	3
0	14831	18.3	3
0	14832	18.3	3
0	14833	18.3	3
0	14854	18.35	3
0	14855	18.35	3
0	14856	18.35	3
0	14857	18.35	3
0	14870	18.4	3
0	14871	18.4	3
0	14872	18.4	3
0	14873	18.4	3
0	14878	18.4	3
0	14879	18.4	3
0	14880	18.4	3
0	14881	18.4	3
0	14902	18.45	3
0	14903	18.45	3
0	14904	18.45	3
0	14905	18.45	3
0	14918	18.5	3
0	14919	18.5	3
0	14920	18.5	3
0	14921	18.5	3
0	14926	18.5	3
0	14927	18.5	3
0	14928	18.5	3
0	14929	18.5	3
0	14950	18.55	3
0	14951	18.55	3
0	14952	18.55	3
0	14953	18.55	3
0	14966	18.6	3
0	14967	18.6	3
0	14968	18.6	3
0	14969	18.6	3
0	14974	18.6	3
0	14975	18.6	3
0	14976	18.6	3
0	14977	18.6	3
0	14998	18.65	3
0	14999	18.65	3
0	15000	18.65	3
0	15001	18.65	3
0	15028	18.7	3
0	15029	18.7	3
0	15030	18.7	3
0	15031	18.7	3
0	15036	18.7	3
0	15037	18.7	3
0	15038	18.7	3
0	15039	18.7	3
0	15200	18.75	3
0	15201	18.75	3
0	15202	18.75	3
0	15203	18.75	3
0	15216	18.8	3
0	15217	18.8	3
0	15218	18.8	3
0	15219	18.8	3
0	15224	18.8	3
0	15225	18.8	3
0	15226	18.8	3
0	15227	18.8	3
0	15286	18.85	3
0	15287	18.85	3
0	15288	18.85	3
0	15289	18.85	3
0	15302	18.9	3
0	15303	18.9	3
0	15304	18.9	3
0	15305	18.9	3
0	15310	18.9	3
0	15311	18.9	3
0	15312	18.9	3
0	15313	18.9	3
0	15334	18.95	3
0	15335	18.95	3
0	15336	18.95	3
0	15337	18.95	3
0	15350	19	3
0	15351	19	3
0	15352	19	3
0	15353	19	3
0	15358	19	3
0	15359	19	3
0	15360	19	3
0	15361	19	3
0	15382	19.05	3
0	15383	19.05	3
0	15384	19.05	3
0	15385	19.05	3
0	15401	19.1	3
0	15402	19.1	3
0	15403	19.1	3
0	15404	19.1	3
0	15409	19.1	3
0	15410	19.1	3
0	15411	19.1	3
0	15412	19.1	3
0	15436	19.15	3
0	15437	19.15	3
0	15438	19.15	3
0	15439	19.15	3
0	15452	19.2	3
0	15453	19.2	3
0	15454	19.2	3
0	15455	19.2	3
0	15460	19.2	3
0	15461	19.2	3
0	15462	19.2	3
0	15463	19.2	3
0	15498	19.25	3
0	15499	19.25	3
0	15500	19.25	3
0	15501	19.25	3
0	15654	19.3	3
0	15655	19.3	3
0	15656	19.3	3
0	15657	19.3	3
0	15662	19.3	3
0	15663	19.3	3
0	15664	19.3	3
0	15665	19.3	3
0	15706	19.35	3
0	15707	19.35	3
0	15708	19.35	3
0	15709	19.35	3
0	15748	19.4	3
0	15749	19.4	3
0	15750	19.4	3
0	15751	19.4	3
0	15756	19.4	3
0	15757	19.4	3
0	15758	19.4	3
0	15759	19.4	3
0	15780	19.45	3
0	15781	19.45	3
0	15782	19.45	3
0	15783	19.45	3
0	15796	19.5	3
0	15797	19.5	3
0	15798	19.5	3
0	15799	19.5	3
0	15804	19.5	3
0	15805	19.5	3
0	15806	19.5	3
0	15807	19.5	3
0	15828	19.55	3
0	15829	19.55	3
0	15830	19.55	3
0	15831	19.55	3
0	15844	19.6	3
0	15845	19.6	3
0	15846	19.6	3
0	15847	19.6	3
0	15852	19.6	3
0	15853	19.6	3
0	15854	19.6	3
0	15855	19.6	3
0	15876	19.65	3
0	15877	19.65	3
0	15878	19.65	3
0	15879	19.65	3
0	15892	19.7	3
0	15893	19.7	3
0	15894	19.7	3
0	15895	19.7	3
0	15900	19.7	3
0	15901	19.7	3
0	15902	19.7	3
0	15903	19.7	3
0	15924	19.75	3
0	15925	19.75	3
0	15926	19.75	3
0	15927	19.75	3
0	15950	19.8	3
0	15951	19.8	3
0	15952	19.8	3
0	15953	19.8	3
0	15958	19.8	3
0	15959	19.8	3
0	15960	19.8	3
0	15961	19.8	3
0	16118	19.85	3
0	16119	19.85	3
0	16120	19.85	3
0	16121	19.85	3
0	16134	19.9	3
0	16135	19.9	3
0	16136	19.9	3
0	16137	19.9	3
0	16142	19.9	3
0	16143	19.9	3
0	16144	19.9	3
0	16145	19.9	3
0	16169	19.95	3
0	16170	19.95	3
0	16171	19.95	3
0	16172	19.95	3
0	16185	20	3
0	16186	20	3
0	16187	20	3
0	16188	20	3
0	16193	20	3
0	16194	20	3
0	16195	20	3
0	16196	20	3
0	16217	20.05	3
0	16218	20.05	3
0	16219	20.05	3
0	16220	20.05	3
0	16236	20.1	3
0	16237	20.1	3
0	16238	20.1	3
0	16239	20.1	3
0	16244	20.1	3
0	16245	20.1	3
0	16246	20.1	3
0	16247	20.1	3
0	16271	20.15	3
0	16272	20.15	3
0	16273	20.15	3
0	16274	20.15	3
0	16287	20.2	3
0	16288	20.2	3
0	16289	20.2	3
0	16290	20.2	3
0	16295	20.2	3
0	16296	20.2	3
0	16297	20.2	3
0	16298	20.2	3
0	16319	20.25	3
0	16320	20.25	3
0	16321	20.25	3
0	16322	20.25	3
0	16335	20.3	3
0	16336	20.3	3
0	16337	20.3	3
0	16338	20.3	3
0	16343	20.3	3
0	16344	20.3	3
0	16345	20.3	3
0	16346	20.3	3
0	16367	20.35	3
0	16368	20.35	3
0	16369	20.35	3
0	16370	20.35	3
0	16519	20.4	3
0	16520	20.4	3
0	16521	20.4	3
0	16522	20.4	3
0	16527	20.4	3
0	16528	20.4	3
0	16529	20.4	3
0	16530	20.4	3
0	16571	20.45	3
0	16572	20.45	3
0	16573	20.45	3
0	16574	20.45	3
0	16587	20.5	3
0	16588	20.5	3
0	16589	20.5	3
0	16590	20.5	3
0	16595	20.5	3
0	16596	20.5	3
0	16597	20.5	3
0	16598	20.5	3
0	16619	20.55	3
0	16620	20.55	3
0	16621	20.55	3
0	16622	20.55	3
0	16635	20.6	3
0	16636	20.6	3
0	16637	20.6	3
0	16638	20.6	3
0	16643	20.6	3
0	16644	20.6	3
0	16645	20.6	3
0	16646	20.6	3
0	16667	20.65	3
0	16668	20.65	3
0	16669	20.65	3
0	16670	20.65	3
0	16683	20.7	3
0	16684	20.7	3
0	16685	20.7	3
0	16686	20.7	3
0	16691	20.7	3
0	16692	20.7	3
0	16693	20.7	3
0	16694	20.7	3
0	16715	20.75	3
0	16716	20.75	3
0	16717	20.75	3
0	16718	20.75	3
0	16731	20.8	3
0	16732	20.8	3
0	16733	20.8	3
0	16734	20.8	3
0	16739	20.8	3
0	16740	20.8	3
0	16741	20.8	3
0	16742	20.8	3
0	16763	20.85	3
0	16764	20.85	3
0	16765	20.85	3
0	16766	20.85	3
0	16779	20.9	3
0	16780	20.9	3
0	16781	20.9	3
0	16782	20.9	3
0	16787	20.9	3
0	16788	20.9	3
0	16789	20.9	3
0	16790	20.9	3
0	16938	20.95	3
0	16939	20.95	3
0	16940	20.95	3
0	16941	20.95	3
0	16964	21	3
0	16965	21	3
0	16966	21	3
0	16967	21	3
0	16972	21	3
0	16973	21	3
0	16974	21	3
0	16975	21	3
0	16996	21.05	3
0	16997	21.05	3
0	16998	21.05	3
0	16999	21.05	3
0	17015	21.1	3
0	17016	21.1	3
0	17017	21.1	3
0	17018	21.1	3
0	17023	21.1	3
0	17024	21.1	3
0	17025	21.1	3
0	17026	21.1	3
0	17050	21.15	3
0	17051	21.15	3
0	17052	21.15	3
0	17053	21.15	3
0	17066	21.2	3
0	17067	21.2	3
0	17068	21.2	3
0	17069	21.2	3
0	17074	21.2	3
0	17075	21.2	3
0	17076	21.2	3
0	17077	21.2	3
0	17098	21.25	3
0	17099	21.25	3
0	17100	21.25	3
0	17101	21.25	3
0	17114	21.3	3
0	17115	21.3	3
0	17116	21.3	3
0	17117	21.3	3
0	17122	21.3	3
0	17123	21.3	3
0	17124	21.3	3
0	17125	21.3	3
0	17146	21.35	3
0	17147	21.35	3
0	17148	21.35	3
0	17149	21.35	3
0	17176	21.4	3
0	17177	21.4	3
0	17178	21.4	3
0	17179	21.4	3
0	17184	21.4	3
0	17185	21.4	3
0	17186	21.4	3
0	17187	21.4	3
0	17208	21.45	3
0	17209	21.45	3
0	17210	21.45	3
0	17211	21.45	3
0	17366	21.5	3
0	17367	21.5	3
0	17368	21.5	3
0	17369	21.5	3
0	17374	21.5	3
0	17375	21.5	3
0	17376	21.5	3
0	17377	21.5	3
0	17441	21.55	3
0	17442	21.55	3
0	17443	21.55	3
0	17444	21.55	3
0	17457	21.6	3
0	17458	21.6	3
0	17459	21.6	3
0	17460	21.6	3
0	17465	21.6	3
0	17466	21.6	3
0	17467	21.6	3
0	17468	21.6	3
0	17492	21.65	3
0	17493	21.65	3
0	17494	21.65	3
0	17495	21.65	3
0	17508	21.7	3
0	17509	21.7	3
0	17510	21.7	3
0	17511	21.7	3
0	17516	21.7	3
0	17517	21.7	3
0	17518	21.7	3
0	17519	21.7	3
0	17540	21.75	3
0	17541	21.75	3
0	17542	21.75	3
0	17543	21.75	3
0	17556	21.8	3
0	17557	21.8	3
0	17558	21.8	3
0	17559	21.8	3
0	17564	21.8	3
0	17565	21.8	3
0	17566	21.8	3
0	17567	21.8	3
0	17588	21.85	3
0	17589	21.85	3
0	17590	21.85	3
0	17591	21.85	3
0	17604	21.9	3
0	17605	21.9	3
0	17606	21.9	3
0	17607	21.9	3
0	17612	21.9	3
0	17613	21.9	3
0	17614	21.9	3
0	17615	21.9	3
0	17639	21.95	3
0	17640	21.95	3
0	17641	21.95	3
0	17642	21.95	3
0	17655	22	3
0	17656	22	3
0	17657	22	3
0	17658	22	3
0	17663	22	3
0	17664	22	3
0	17665	22	3
0	17666	22	3
0	17799	22.05	3
0	17800	22.05	3
0	17801	22.05	3
0	17802	22.05	3
0	17818	22.1	3
0	17819	22.1	3
0	17820	22.1	3
0	17821	22.1	3
0	17826	22.1	3
0	17827	22.1	3
0	17828	22.1	3
0	17829	22.1	3
0	17853	22.15	3
0	17854	22.15	3
0	17855	22.15	3
0	17856	22.15	3
0	17869	22.2	3
0	17870	22.2	3
0	17871	22.2	3
0	17872	22.2	3
0	17877	22.2	3
0	17878	22.2	3
0	17879	22.2	3
0	17880	22.2	3
0	17901	22.25	3
0	17902	22.25	3
0	17903	22.25	3
0	17904	22.25	3
0	17917	22.3	3
0	17918	22.3	3
0	17919	22.3	3
0	17920	22.3	3
0	17925	22.3	3
0	17926	22.3	3
0	17927	22.3	3
0	17928	22.3	3
0	17949	22.35	3
0	17950	22.35	3
0	17951	22.35	3
0	17952	22.35	3
0	17965	22.4	3
0	17966	22.4	3
0	17967	22.4	3
0	17968	22.4	3
0	17973	22.4	3
0	17974	22.4	3
0	17975	22.4	3
0	17976	22.4	3
0	17997	22.45	3
0	17998	22.45	3
0	17999	22.45	3
0	18000	22.45	3
0	18013	22.5	3
0	18014	22.5	3
0	18015	22.5	3
0	18016	22.5	3
0	18021	22.5	3
0	18022	22.5	3
0	18023	22.5	3
0	18024	22.5	3
0	18045	22.55	3
0	18046	22.55	3
0	18047	22.55	3
0	18048	22.55	3
0	18191	22.6	3
0	18192	22.6	3
0	18193	22.6	3
0	18194	22.6	3
0	18199	22.6	3
0	18200	22.6	3
0	18201	22.6	3
0	18202	22.6	3
0	18253	22.65	3
0	18254	22.65	3
0	18255	22.65	3
0	18256	22.65	3
0	18269	22.7	3
0	18270	22.7	3
0	18271	22.7	3
0	18272	22.7	3
0	18277	22.7	3
0	18278	22.7	3
0	18279	22.7	3
0	18280	22.7	3
0	18301	22.75	3
0	18302	22.75	3
0	18303	22.75	3
0	18304	22.75	3
0	18317	22.8	3
0	18318	22.8	3
0	18319	22.8	3
0	18320	22.8	3
0	18325	22.8	3
0	18326	22.8	3
0	18327	22.8	3
0	18328	22.8	3
0	18349	22.85	3
0	18350	22.85	3
0	18351	22.85	3
0	18352	22.85	3
0	18365	22.9	3
0	18366	22.9	3
0	18367	22.9	3
0	18368	22.9	3
0	18373	22.9	3
0	18374	22.9	3
0	18375	22.9	3
0	18376	22.9	3
0	18397	22.95	3
0	18398	22.95	3
0	18399	22.95	3
0	18400	22.95	3
0	18413	23	3
0	18414	23	3
0	18415	23	3
0	18416	23	3
0	18421	23	3
0	18422	23	3
0	18423	23	3
0	18424	23	3
0	18445	23.05	3
0	18446	23.05	3
0	18447	23.05	3
0	18448	23.05	3
0	18478	23.1	3
0	18479	23.1	3
0	18480	23.1	3
0	18481	23.1	3
0	18486	23.1	3
0	18487	23.1	3
0	18488	23.1	3
0	18489	23.1	3
0	18646	23.15	3
0	18647	23.15	3
0	18648	23.15	3
0	18649	23.15	3
0	18692	23.2	3
0	18693	23.2	3
0	18694	23.2	3
0	18695	23.2	3
0	18700	23.2	3
0	18701	23.2	3
0	18702	23.2	3
0	18703	23.2	3
0	18738	23.25	3
0	18739	23.25	3
0	18740	23.25	3
0	18741	23.25	3
0	18757	23.3	3
0	18758	23.3	3
0	18759	23.3	3
0	18760	23.3	3
0	18765	23.3	3
0	18766	23.3	3
0	18767	23.3	3
0	18768	23.3	3
0	18789	23.35	3
0	18790	23.35	3
0	18791	23.35	3
0	18792	23.35	3
0	18805	23.4	3
0	18806	23.4	3
0	18807	23.4	3
0	18808	23.4	3
0	18813	23.4	3
0	18814	23.4	3
0	18815	23.4	3
0	18816	23.4	3
0	18837	23.45	3
0	18838	23.45	3
0	18839	23.45	3
0	18840	23.45	3
0	18853	23.5	3
0	18854	23.5	3
0	18855	23.5	3
0	18856	23.5	3
0	18861	23.5	3
0	18862	23.5	3
0	18863	23.5	3
0	18864	23.5	3
0	18885	23.55	3
0	18886	23.55	3
0	18887	23.55	3
0	18888	23.55	3
0	18901	23.6	3
0	18902	23.6	3
0	18903	23.6	3
0	18904	23.6	3
0	18909	23.6	3
0	18910	23.6	3
0	18911	23.6	3
0	18912	23.6	3
0	18947	23.65	3
0	18948	23.65	3
0	18949	23.65	3
0	18950	23.65	3
0	19070	23.7	3
0	19071	23.7	3
0	19072	23.7	3
0	19073	23.7	3
0	19078	23.7	3
0	19079	23.7	3
0	19080	23.7	3
0	19081	23.7	3
0	19105	23.75	3
0	19106	23.75	3
0	19107	23.75	3
0	19108	23.75	3
0	19135	23.8	3
0	19136	23.8	3
0	19137	23.8	3
0	19138	23.8	3
0	19143	23.8	3
0	19144	23.8	3
0	19145	23.8	3
0	19146	23.8	3
0	19170	23.85	3
0	19171	23.85	3
0	19172	23.85	3
0	19173	23.85	3
0	19186	23.9	3
0	19187	23.9	3
0	19188	23.9	3
0	19189	23.9	3
0	19194	23.9	3
0	19195	23.9	3
0	19196	23.9	3
0	19197	23.9	3
0	19218	23.95	3
0	19219	23.95	3
0	19220	23.95	3
0	19221	23.95	3
0	19234	24	3
0	19235	24	3
0	19236	24	3
0	19237	24	3
0	19242	24	3
0	19243	24	3
0	19244	24	3
0	19245	24	3
0	19266	24.05	3
0	19267	24.05	3
0	19268	24.05	3
0	19269	24.05	3
0	19285	24.1	3
0	19286	24.1	3
0	19287	24.1	3
0	19288	24.1	3
0	19293	24.1	3
0	19294	24.1	3
0	19295	24.1	3
0	19296	24.1	3
0	19320	24.15	3
0	19321	24.15	3
0	19322	24.15	3
0	19323	24.15	3
0	19346	24.2	3
0	19347	24.2	3
0	19348	24.2	3
0	19349	24.2	3
0	19354	24.2	3
0	19355	24.2	3
0	19356	24.2	3
0	19357	24.2	3
0	19488	24.25	3
0	19489	24.25	3
0	19490	24.25	3
0	19491	24.25	3
0	19514	24.3	3
0	19515	24.3	3
0	19516	24.3	3
0	19517	24.3	3
0	19522	24.3	3
0	19523	24.3	3
0	19524	24.3	3
0	19525	24.3	3
0	19560	24.35	3
0	19561	24.35	3
0	19562	24.35	3
0	19563	24.35	3
0	19576	24.4	3
0	19577	24.4	3
0	19578	24.4	3
0	19579	24.4	3
0	19584	24.4	3
0	19585	24.4	3
0	19586	24.4	3
0	19587	24.4	3
0	19608	24.45	3
0	19609	24.45	3
0	19610	24.45	3
0	19611	24.45	3
0	19624	24.5	3
0	19625	24.5	3
0	19626	24.5	3
0	19627	24.5	3
0	19632	24.5	3
0	19633	24.5	3
0	19634	24.5	3
0	19635	24.5	3
0	19656	24.55	3
0	19657	24.55	3
0	19658	24.55	3
0	19659	24.55	3
0	19672	24.6	3
0	19673	24.6	3
0	19674	24.6	3
0	19675	24.6	3
0	19680	24.6	3
0	19681	24.6	3
0	19682	24.6	3
0	19683	24.6	3
0	19704	24.65	3
0	19705	24.65	3
0	19706	24.65	3
0	19707	24.65	3
0	19720	24.7	3
0	19721	24.7	3
0	19722	24.7	3
0	19723	24.7	3
0	19728	24.7	3
0	19729	24.7	3
0	19730	24.7	3
0	19731	24.7	3
0	19792	24.75	3
0	19793	24.75	3
0	19794	24.75	3
0	19795	24.75	3
0	19892	24.8	3
0	19893	24.8	3
0	19894	24.8	3
0	19895	24.8	3
0	19900	24.8	3
0	19901	24.8	3
0	19902	24.8	3
0	19903	24.8	3
0	19924	24.85	3
0	19925	24.85	3
0	19926	24.85	3
0	19927	24.85	3
0	19953	24.9	3
0	19954	24.9	3
0	19955	24.9	3
0	19956	24.9	3
0	19961	24.9	3
0	19962	24.9	3
0	19963	24.9	3
0	19964	24.9	3
0	19985	24.95	3
0	19986	24.95	3
0	19987	24.95	3
0	19988	24.95	3
0	20001	25	3
0	20002	25	3
0	20003	25	3
0	20004	25	3
0	20009	25	3
0	20010	25	3
0	20011	25	3
0	20012	25	3
0	20033	25.05	3
0	20034	25.05	3
0	20035	25.05	3
0	20036	25.05	3
0	20052	25.1	3
0	20053	25.1	3
0	20054	25.1	3
0	20055	25.1	3
0	20060	25.1	3
0	20061	25.1	3
0	20062	25.1	3
0	20063	25.1	3
0	20087	25.15	3
0	20088	25.15	3
0	20089	25.15	3
0	20090	25.15	3
0	20103	25.2	3
0	20104	25.2	3
0	20105	25.2	3
0	20106	25.2	3
0	20111	25.2	3
0	20112	25.2	3
0	20113	25.2	3
0	20114	25.2	3
0	20135	25.25	3
0	20136	25.25	3
0	20137	25.25	3
0	20138	25.25	3
0	20175	25.3	3
0	20176	25.3	3
0	20177	25.3	3
0	20178	25.3	3
0	20183	25.3	3
0	20184	25.3	3
0	20185	25.3	3
0	20186	25.3	3
0	20317	25.35	3
0	20318	25.35	3
0	20319	25.35	3
0	20320	25.35	3
0	20343	25.4	3
0	20344	25.4	3
0	20345	25.4	3
0	20346	25.4	3
0	20351	25.4	3
0	20352	25.4	3
0	20353	25.4	3
0	20354	25.4	3
0	20399	25.45	3
0	20400	25.45	3
0	20401	25.45	3
0	20402	25.45	3
0	20415	25.5	3
0	20416	25.5	3
0	20417	25.5	3
0	20418	25.5	3
0	20423	25.5	3
0	20424	25.5	3
0	20425	25.5	3
0	20426	25.5	3
0	20447	25.55	3
0	20448	25.55	3
0	20449	25.55	3
0	20450	25.55	3
0	20463	25.6	3
0	20464	25.6	3
0	20465	25.6	3
0	20466	25.6	3
0	20471	25.6	3
0	20472	25.6	3
0	20473	25.6	3
0	20474	25.6	3
0	20495	25.65	3
0	20496	25.65	3
0	20497	25.65	3
0	20498	25.65	3
0	20511	25.7	3
0	20512	25.7	3
0	20513	25.7	3
0	20514	25.7	3
0	20519	25.7	3
0	20520	25.7	3
0	20521	25.7	3
0	20522	25.7	3
0	20543	25.75	3
0	20544	25.75	3
0	20545	25.75	3
0	20546	25.75	3
0	20559	25.8	3
0	20560	25.8	3
0	20561	25.8	3
0	20562	25.8	3
0	20567	25.8	3
0	20568	25.8	3
0	20569	25.8	3
0	20570	25.8	3
0	20620	25.85	3
0	20621	25.85	3
0	20622	25.85	3
0	20623	25.85	3
0	20720	25.9	3
0	20721	25.9	3
0	20722	25.9	3
0	20723	25.9	3
0	20728	25.9	3
0	20729	25.9	3
0	20730	25.9	3
0	20731	25.9	3
0	20752	25.95	3
0	20753	25.95	3
0	20754	25.95	3
0	20755	25.95	3
0	20782	26	3
0	20783	26	3
0	20784	26	3
0	20785	26	3
0	20790	26	3
0	20791	26	3
0	20792	26	3
0	20793	26	3
0	20814	26.05	3
0	20815	26.05	3
0	20816	26.05	3
0	20817	26.05	3
0	20833	26.1	3
0	20834	26.1	3
0	20835	26.1	3
0	20836	26.1	3
0	20841	26.1	3
0	20842	26.1	3
0	20843	26.1	3
0	20844	26.1	3
0	20868	26.15	3
0	20869	26.15	3
0	20870	26.15	3
0	20871	26.15	3
0	20884	26.2	3
0	20885	26.2	3
0	20886	26.2	3
0	20887	26.2	3
0	20892	26.2	3
0	20893	26.2	3
0	20894	26.2	3
0	20895	26.2	3
0	20916	26.25	3
0	20917	26.25	3
0	20918	26.25	3
0	20919	26.25	3
0	20932	26.3	3
0	20933	26.3	3
0	20934	26.3	3
0	20935	26.3	3
0	20940	26.3	3
0	20941	26.3	3
0	20942	26.3	3
0	20943	26.3	3
0	20974	26.35	3
0	20975	26.35	3
0	20976	26.35	3
0	20977	26.35	3
0	21000	26.4	3
0	21001	26.4	3
0	21002	26.4	3
0	21003	26.4	3
0	21008	26.4	3
0	21009	26.4	3
0	21010	26.4	3
0	21011	26.4	3
0	21142	26.45	3
0	21143	26.45	3
0	21144	26.45	3
0	21145	26.45	3
0	21171	26.5	3
0	21172	26.5	3
0	21173	26.5	3
0	21174	26.5	3
0	21179	26.5	3
0	21180	26.5	3
0	21181	26.5	3
0	21182	26.5	3
0	21206	26.55	3
0	21207	26.55	3
0	21208	26.55	3
0	21209	26.55	3
0	21222	26.6	3
0	21223	26.6	3
0	21224	26.6	3
0	21225	26.6	3
0	21230	26.6	3
0	21231	26.6	3
0	21232	26.6	3
0	21233	26.6	3
0	21254	26.65	3
0	21255	26.65	3
0	21256	26.65	3
0	21257	26.65	3
0	21270	26.7	3
0	21271	26.7	3
0	21272	26.7	3
0	21273	26.7	3
0	21278	26.7	3
0	21279	26.7	3
0	21280	26.7	3
0	21281	26.7	3
0	21302	26.75	3
0	21303	26.75	3
0	21304	26.75	3
0	21305	26.75	3
0	21318	26.8	3
0	21319	26.8	3
0	21320	26.8	3
0	21321	26.8	3
0	21326	26.8	3
0	21327	26.8	3
0	21328	26.8	3
0	21329	26.8	3
0	21350	26.85	3
0	21351	26.85	3
0	21352	26.85	3
0	21353	26.85	3
0	21366	26.9	3
0	21367	26.9	3
0	21368	26.9	3
0	21369	26.9	3
0	21374	26.9	3
0	21375	26.9	3
0	21376	26.9	3
0	21377	26.9	3
0	21398	26.95	3
0	21399	26.95	3
0	21400	26.95	3
0	21401	26.95	3
0	21498	27	3
0	21499	27	3
0	21500	27	3
0	21501	27	3
0	21506	27	3
0	21507	27	3
0	21508	27	3
0	21509	27	3
0	21544	27.05	3
0	21545	27.05	3
0	21546	27.05	3
0	21547	27.05	3
0	21563	27.1	3
0	21564	27.1	3
0	21565	27.1	3
0	21566	27.1	3
0	21571	27.1	3
0	21572	27.1	3
0	21573	27.1	3
0	21574	27.1	3
0	21598	27.15	3
0	21599	27.15	3
0	21600	27.15	3
0	21601	27.15	3
0	21634	27.2	3
0	21635	27.2	3
0	21636	27.2	3
0	21637	27.2	3
0	21642	27.2	3
0	21643	27.2	3
0	21644	27.2	3
0	21645	27.2	3
0	21666	27.25	3
0	21667	27.25	3
0	21668	27.25	3
0	21669	27.25	3
0	21682	27.3	3
0	21683	27.3	3
0	21684	27.3	3
0	21685	27.3	3
0	21690	27.3	3
0	21691	27.3	3
0	21692	27.3	3
0	21693	27.3	3
0	21714	27.35	3
0	21715	27.35	3
0	21716	27.35	3
0	21717	27.35	3
0	21730	27.4	3
0	21731	27.4	3
0	21732	27.4	3
0	21733	27.4	3
0	21738	27.4	3
0	21739	27.4	3
0	21740	27.4	3
0	21741	27.4	3
0	21762	27.45	3
0	21763	27.45	3
0	21764	27.45	3
0	21765	27.45	3
0	21778	27.5	3
0	21779	27.5	3
0	21780	27.5	3
0	21781	27.5	3
0	21786	27.5	3
0	21787	27.5	3
0	21788	27.5	3
0	21789	27.5	3
0	21918	27.55	3
0	21919	27.55	3
0	21920	27.55	3
0	21921	27.55	3
0	21944	27.6	3
0	21945	27.6	3
0	21946	27.6	3
0	21947	27.6	3
0	21952	27.6	3
0	21953	27.6	3
0	21954	27.6	3
0	21955	27.6	3
0	21976	27.65	3
0	21977	27.65	3
0	21978	27.65	3
0	21979	27.65	3
0	21992	27.7	3
0	21993	27.7	3
0	21994	27.7	3
0	21995	27.7	3
0	22000	27.7	3
0	22001	27.7	3
0	22002	27.7	3
0	22003	27.7	3
0	22059	27.75	3
0	22060	27.75	3
0	22061	27.75	3
0	22062	27.75	3
0	22075	27.8	3
0	22076	27.8	3
0	22077	27.8	3
0	22078	27.8	3
0	22083	27.8	3
0	22084	27.8	3
0	22085	27.8	3
0	22086	27.8	3
0	22107	27.85	3
0	22108	27.85	3
0	22109	27.85	3
0	22110	27.85	3
0	22123	27.9	3
0	22124	27.9	3
0	22125	27.9	3
0	22126	27.9	3
0	22131	27.9	3
0	22132	27.9	3
0	22133	27.9	3
0	22134	27.9	3
0	22165	27.95	3
0	22166	27.95	3
0	22167	27.95	3
0	22168	27.95	3
0	22195	28	3
0	22196	28	3
0	22197	28	3
0	22198	28	3
0	22203	28	3
0	22204	28	3
0	22205	28	3
0	22206	28	3
0	22227	28.05	3
0	22228	28.05	3
0	22229	28.05	3
0	22230	28.05	3
0	22340	28.1	3
0	22341	28.1	3
0	22342	28.1	3
0	22343	28.1	3
0	22348	28.1	3
0	22349	28.1	3
0	22350	28.1	3
0	22351	28.1	3
0	22403	28.15	3
0	22404	28.15	3
0	22405	28.15	3
0	22406	28.15	3
0	22419	28.2	3
0	22420	28.2	3
0	22421	28.2	3
0	22422	28.2	3
0	22427	28.2	3
0	22428	28.2	3
0	22429	28.2	3
0	22430	28.2	3
0	22451	28.25	3
0	22452	28.25	3
0	22453	28.25	3
0	22454	28.25	3
0	22477	28.3	3
0	22478	28.3	3
0	22479	28.3	3
0	22480	28.3	3
0	22485	28.3	3
0	22486	28.3	3
0	22487	28.3	3
0	22488	28.3	3
0	22509	28.35	3
0	22510	28.35	3
0	22511	28.35	3
0	22512	28.35	3
0	22525	28.4	3
0	22526	28.4	3
0	22527	28.4	3
0	22528	28.4	3
0	22533	28.4	3
0	22534	28.4	3
0	22535	28.4	3
0	22536	28.4	3
0	22557	28.45	3
0	22558	28.45	3
0	22559	28.45	3
0	22560	28.45	3
0	22599	28.5	3
0	22600	28.5	3
0	22601	28.5	3
0	22602	28.5	3
0	22607	28.5	3
0	22608	28.5	3
0	22609	28.5	3
0	22610	28.5	3
0	22645	28.55	3
0	22646	28.55	3
0	22647	28.55	3
0	22648	28.55	3
0	22661	28.6	3
0	22662	28.6	3
0	22663	28.6	3
0	22664	28.6	3
0	22669	28.6	3
0	22670	28.6	3
0	22671	28.6	3
0	22672	28.6	3
0	22794	28.65	3
0	22795	28.65	3
0	22796	28.65	3
0	22797	28.65	3
0	22868	28.7	3
0	22869	28.7	3
0	22870	28.7	3
0	22871	28.7	3
0	22876	28.7	3
0	22877	28.7	3
0	22878	28.7	3
0	22879	28.7	3
0	22900	28.75	3
0	22901	28.75	3
0	22902	28.75	3
0	22903	28.75	3
0	22916	28.8	3
0	22917	28.8	3
0	22918	28.8	3
0	22919	28.8	3
0	22924	28.8	3
0	22925	28.8	3
0	22926	28.8	3
0	22927	28.8	3
0	22951	28.85	3
0	22952	28.85	3
0	22953	28.85	3
0	22954	28.85	3
0	22967	28.9	3
0	22968	28.9	3
0	22969	28.9	3
0	22970	28.9	3
0	22975	28.9	3
0	22976	28.9	3
0	22977	28.9	3
0	22978	28.9	3
0	22999	28.95	3
0	23000	28.95	3
0	23001	28.95	3
0	23002	28.95	3
0	23015	29	3
0	23016	29	3
0	23017	29	3
0	23018	29	3
0	23023	29	3
0	23024	29	3
0	23025	29	3
0	23026	29	3
0	23047	29.05	3
0	23048	29.05	3
0	23049	29.05	3
0	23050	29.05	3
0	23080	29.1	3
0	23081	29.1	3
0	23082	29.1	3
0	23083	29.1	3
0	23088	29.1	3
0	23089	29.1	3
0	23090	29.1	3
0	23091	29.1	3
0	23115	29.15	3
0	23116	29.15	3
0	23117	29.15	3
0	23118	29.15	3
0	23239	29.2	3
0	23240	29.2	3
0	23241	29.2	3
0	23242	29.2	3
0	23247	29.2	3
0	23248	29.2	3
0	23249	29.2	3
0	23250	29.2	3
0	23285	29.25	3
0	23286	29.25	3
0	23287	29.25	3
0	23288	29.25	3
0	23301	29.3	3
0	23302	29.3	3
0	23303	29.3	3
0	23304	29.3	3
0	23309	29.3	3
0	23310	29.3	3
0	23311	29.3	3
0	23312	29.3	3
0	23333	29.35	3
0	23334	29.35	3
0	23335	29.35	3
0	23336	29.35	3
0	23349	29.4	3
0	23350	29.4	3
0	23351	29.4	3
0	23352	29.4	3
0	23357	29.4	3
0	23358	29.4	3
0	23359	29.4	3
0	23360	29.4	3
0	23381	29.45	3
0	23382	29.45	3
0	23383	29.45	3
0	23384	29.45	3
0	23397	29.5	3
0	23398	29.5	3
0	23399	29.5	3
0	23400	29.5	3
0	23405	29.5	3
0	23406	29.5	3
0	23407	29.5	3
0	23408	29.5	3
0	23429	29.55	3
0	23430	29.55	3
0	23431	29.55	3
0	23432	29.55	3
0	23445	29.6	3
0	23446	29.6	3
0	23447	29.6	3
0	23448	29.6	3
0	23453	29.6	3
0	23454	29.6	3
0	23455	29.6	3
0	23456	29.6	3
0	23487	29.65	3
0	23488	29.65	3
0	23489	29.65	3
0	23490	29.65	3
0	23503	29.7	3
0	23504	29.7	3
0	23505	29.7	3
0	23506	29.7	3
0	23511	29.7	3
0	23512	29.7	3
0	23513	29.7	3
0	23514	29.7	3
0	23619	29.75	3
0	23620	29.75	3
0	23621	29.75	3
0	23622	29.75	3
0	23649	29.8	3
0	23650	29.8	3
0	23651	29.8	3
0	23652	29.8	3
0	23657	29.8	3
0	23658	29.8	3
0	23659	29.8	3
0	23660	29.8	3
0	23681	29.85	3
0	23682	29.85	3
0	23683	29.85	3
0	23684	29.85	3
0	23697	29.9	3
0	23698	29.9	3
0	23699	29.9	3
0	23700	29.9	3
0	23705	29.9	3
0	23706	29.9	3
0	23707	29.9	3
0	23708	29.9	3
0	23729	29.95	3
0	23730	29.95	3
0	23731	29.95	3
0	23732	29.95	3
0	23745	30	3
0	23746	30	3
0	23747	30	3
0	23748	30	3
0	23753	30	3
0	23754	30	3
0	23755	30	3
0	23756	30	3
0	23777	30.05	3
0	23778	30.05	3
0	23779	30.05	3
0	23780	30.05	3
0	23806	30.1	3
0	23807	30.1	3
0	23808	30.1	3
0	23809	30.1	3
0	23814	30.1	3
0	23815	30.1	3
0	23816	30.1	3
0	23817	30.1	3
0	23841	30.15	3
0	23842	30.15	3
0	23843	30.15	3
0	23844	30.15	3
0	23867	30.2	3
0	23868	30.2	3
0	23869	30.2	3
0	23870	30.2	3
0	23875	30.2	3
0	23876	30.2	3
0	23877	30.2	3
0	23878	30.2	3
0	23909	30.25	3
0	23910	30.25	3
0	23911	30.25	3
0	23912	30.25	3
0	24037	30.3	3
0	24038	30.3	3
0	24039	30.3	3
0	24040	30.3	3
0	24045	30.3	3
0	24046	30.3	3
0	24047	30.3	3
0	24048	30.3	3
0	24082	30.35	3
0	24083	30.35	3
0	24084	30.35	3
0	24085	30.35	3
0	24098	30.4	3
0	24099	30.4	3
0	24100	30.4	3
0	24101	30.4	3
0	24106	30.4	3
0	24107	30.4	3
0	24108	30.4	3
0	24109	30.4	3
0	24144	30.45	3
0	24145	30.45	3
0	24146	30.45	3
0	24147	30.45	3
0	24160	30.5	3
0	24161	30.5	3
0	24162	30.5	3
0	24163	30.5	3
0	24168	30.5	3
0	24169	30.5	3
0	24170	30.5	3
0	24171	30.5	3
0	24192	30.55	3
0	24193	30.55	3
0	24194	30.55	3
0	24195	30.55	3
0	24208	30.6	3
0	24209	30.6	3
0	24210	30.6	3
0	24211	30.6	3
0	24216	30.6	3
0	24217	30.6	3
0	24218	30.6	3
0	24219	30.6	3
0	24243	30.65	3
0	24244	30.65	3
0	24245	30.65	3
0	24246	30.65	3
0	24259	30.7	3
0	24260	30.7	3
0	24261	30.7	3
0	24262	30.7	3
0	24267	30.7	3
0	24268	30.7	3
0	24269	30.7	3
0	24270	30.7	3
0	24291	30.75	3
0	24292	30.75	3
0	24293	30.75	3
0	24294	30.75	3
0	24307	30.8	3
0	24308	30.8	3
0	24309	30.8	3
0	24310	30.8	3
0	24315	30.8	3
0	24316	30.8	3
0	24317	30.8	3
0	24318	30.8	3
0	24426	30.85	3
0	24427	30.85	3
0	24428	30.85	3
0	24429	30.85	3
0	24442	30.9	3
0	24443	30.9	3
0	24444	30.9	3
0	24445	30.9	3
0	24450	30.9	3
0	24451	30.9	3
0	24452	30.9	3
0	24453	30.9	3
0	24474	30.95	3
0	24475	30.95	3
0	24476	30.95	3
0	24477	30.95	3
0	24490	31	3
0	24491	31	3
0	24492	31	3
0	24493	31	3
0	24498	31	3
0	24499	31	3
0	24500	31	3
0	24501	31	3
0	24522	31.05	3
0	24523	31.05	3
0	24524	31.05	3
0	24525	31.05	3
0	24541	31.1	3
0	24542	31.1	3
0	24543	31.1	3
0	24544	31.1	3
0	24549	31.1	3
0	24550	31.1	3
0	24551	31.1	3
0	24552	31.1	3
0	24576	31.15	3
0	24577	31.15	3
0	24578	31.15	3
0	24579	31.15	3
0	24592	31.2	3
0	24593	31.2	3
0	24594	31.2	3
0	24595	31.2	3
0	24600	31.2	3
0	24601	31.2	3
0	24602	31.2	3
0	24603	31.2	3
0	24624	31.25	3
0	24625	31.25	3
0	24626	31.25	3
0	24627	31.25	3
0	24640	31.3	3
0	24641	31.3	3
0	24642	31.3	3
0	24643	31.3	3
0	24648	31.3	3
0	24649	31.3	3
0	24650	31.3	3
0	24651	31.3	3
0	24672	31.35	3
0	24673	31.35	3
0	24674	31.35	3
0	24675	31.35	3
0	24796	31.4	3
0	24797	31.4	3
0	24798	31.4	3
0	24799	31.4	3
0	24804	31.4	3
0	24805	31.4	3
0	24806	31.4	3
0	24807	31.4	3
0	24828	31.45	3
0	24829	31.45	3
0	24830	31.45	3
0	24831	31.45	3
0	24844	31.5	3
0	24845	31.5	3
0	24846	31.5	3
0	24847	31.5	3
0	24852	31.5	3
0	24853	31.5	3
0	24854	31.5	3
0	24855	31.5	3
0	24876	31.55	3
0	24877	31.55	3
0	24878	31.55	3
0	24879	31.55	3
0	24892	31.6	3
0	24893	31.6	3
0	24894	31.6	3
0	24895	31.6	3
0	24900	31.6	3
0	24901	31.6	3
0	24902	31.6	3
0	24903	31.6	3
0	24924	31.65	3
0	24925	31.65	3
0	24926	31.65	3
0	24927	31.65	3
0	24940	31.7	3
0	24941	31.7	3
0	24942	31.7	3
0	24943	31.7	3
0	24948	31.7	3
0	24949	31.7	3
0	24950	31.7	3
0	24951	31.7	3
0	24972	31.75	3
0	24973	31.75	3
0	24974	31.75	3
0	24975	31.75	3
0	24991	31.8	3
0	24992	31.8	3
0	24993	31.8	3
0	24994	31.8	3
0	24999	31.8	3
0	25000	31.8	3
0	25001	31.8	3
0	25002	31.8	3
0	25026	31.85	3
0	25027	31.85	3
0	25028	31.85	3
0	25029	31.85	3
0	25042	31.9	3
0	25043	31.9	3
0	25044	31.9	3
0	25045	31.9	3
0	25050	31.9	3
0	25051	31.9	3
0	25052	31.9	3
0	25053	31.9	3
0	25161	31.95	3
0	25162	31.95	3
0	25163	31.95	3
0	25164	31.95	3
0	25177	32	3
0	25178	32	3
0	25179	32	3
0	25180	32	3
0	25185	32	3
0	25186	32	3
0	25187	32	3
0	25188	32	3
0	25212	32.05	3
0	25213	32.05	3
0	25214	32.05	3
0	25215	32.05	3
0	25231	32.1	3
0	25232	32.1	3
0	25233	32.1	3
0	25234	32.1	3
0	25239	32.1	3
0	25240	32.1	3
0	25241	32.1	3
0	25242	32.1	3
0	25266	32.15	3
0	25267	32.15	3
0	25268	32.15	3
0	25269	32.15	3
0	25282	32.2	3
0	25283	32.2	3
0	25284	32.2	3
0	25285	32.2	3
0	25290	32.2	3
0	25291	32.2	3
0	25292	32.2	3
0	25293	32.2	3
0	25342	32.25	3
0	25343	32.25	3
0	25344	32.25	3
0	25345	32.25	3
0	25371	32.3	3
0	25372	32.3	3
0	25373	32.3	3
0	25374	32.3	3
0	25379	32.3	3
0	25380	32.3	3
0	25381	32.3	3
0	25382	32.3	3
0	25403	32.35	3
0	25404	32.35	3
0	25405	32.35	3
0	25406	32.35	3
0	25425	32.4	3
0	25426	32.4	3
0	25427	32.4	3
0	25428	32.4	3
0	25433	32.4	3
0	25434	32.4	3
0	25435	32.4	3
0	25436	32.4	3
0	25457	32.45	3
0	25458	32.45	3
0	25459	32.45	3
0	25460	32.45	3
0	25581	32.5	3
0	25582	32.5	3
0	25583	32.5	3
0	25584	32.5	3
0	25589	32.5	3
0	25590	32.5	3
0	25591	32.5	3
0	25592	32.5	3
0	25613	32.55	3
0	25614	32.55	3
0	25615	32.55	3
0	25616	32.55	3
0	25629	32.6	3
0	25630	32.6	3
0	25631	32.6	3
0	25632	32.6	3
0	25637	32.6	3
0	25638	32.6	3
0	25639	32.6	3
0	25640	32.6	3
0	25661	32.65	3
0	25662	32.65	3
0	25663	32.65	3
0	25664	32.65	3
0	25677	32.7	3
0	25678	32.7	3
0	25679	32.7	3
0	25680	32.7	3
0	25685	32.7	3
0	25686	32.7	3
0	25687	32.7	3
0	25688	32.7	3
0	25709	32.75	3
0	25710	32.75	3
0	25711	32.75	3
0	25712	32.75	3
0	25725	32.8	3
0	25726	32.8	3
0	25727	32.8	3
0	25728	32.8	3
0	25733	32.8	3
0	25734	32.8	3
0	25735	32.8	3
0	25736	32.8	3
0	25757	32.85	3
0	25758	32.85	3
0	25759	32.85	3
0	25760	32.85	3
0	25773	32.9	3
0	25774	32.9	3
0	25775	32.9	3
0	25776	32.9	3
0	25781	32.9	3
0	25782	32.9	3
0	25783	32.9	3
0	25784	32.9	3
0	25805	32.95	3
0	25806	32.95	3
0	25807	32.95	3
0	25808	32.95	3
0	25821	33	3
0	25822	33	3
0	25823	33	3
0	25824	33	3
0	25829	33	3
0	25830	33	3
0	25831	33	3
0	25832	33	3
0	25937	33.05	3
0	25938	33.05	3
0	25939	33.05	3
0	25940	33.05	3
0	25956	33.1	2
0	25957	33.1	3
0	25958	33.1	2
0	25959	33.1	3
0	25964	33.1	2
0	25965	33.1	3
0	25966	33.1	2
0	25967	33.1	3
0	25991	33.15	2
0	25992	33.15	3
0	25993	33.15	2
0	25994	33.15	3
0	26007	33.2	2
0	26008	33.2	3
0	26009	33.2	2
0	26010	33.2	3
0	26015	33.2	2
0	26016	33.2	3
0	26017	33.2	2
0	26018	33.2	3
0	26039	33.25	2
0	26040	33.25	3
0	26041	33.25	2
0	26042	33.25	3
0	26055	33.3	2
0	26056	33.3	3
0	26057	33.3	2
0	26058	33.3	3
0	26063	33.3	2
0	26064	33.3	3
0	26065	33.3	2
0	26066	33.3	3
0	26087	33.35	2
0	26088	33.35	3
0	26089	33.35	2
0	26090	33.35	3
0	26113	33.4	2
0	26114	33.4	3
0	26115	33.4	2
0	26116	33.4	3
0	26121	33.4	2
0	26122	33.4	3
0	26123	33.4	2
0	26124	33.4	3
0	26145	33.45	2
0	26146	33.45	3
0	26147	33.45	2
0	26148	33.45	3
0	26161	33.5	2
0	26162	33.5	3
0	26163	33.5	2
0	26164	33.5	3
0	26169	33.5	2
0	26170	33.5	3
0	26171	33.5	2
0	26172	33.5	3
0	26196	33.55	2
0	26197	33.55	3
0	26198	33.55	2
0	26199	33.55	3
0	26320	33.6	2
0	26321	33.6	3
0	26322	33.6	2
0	26323	33.6	3
0	26328	33.6	2
0	26329	33.6	3
0	26330	33.6	2
0	26331	33.6	3
0	26366	33.65	2
0	26367	33.65	3
0	26368	33.65	2
0	26369	33.65	3
0	26382	33.7	2
0	26383	33.7	3
0	26384	33.7	2
0	26385	33.7	3
0	26390	33.7	2
0	26391	33.7	3
0	26392	33.7	2
0	26393	33.7	3
0	26414	33.75	2
0	26415	33.75	3
0	26416	33.75	2
0	26417	33.75	3
0	26433	33.8	1
0	26434	33.8	3
0	26435	33.8	2
0	26436	33.8	2
0	26441	33.8	1
0	26442	33.8	3
0	26443	33.8	2
0	26444	33.8	2
0	26465	33.85	1
0	26466	33.85	3
0	26467	33.85	2
0	26468	33.85	2
0	26481	33.9	1
0	26482	33.9	3
0	26483	33.9	2
0	26484	33.9	2
0	26489	33.9	1
0	26490	33.9	3
0	26491	33.9	2
0	26492	33.9	2
0	26513	33.95	1
0	26514	33.95	3
0	26515	33.95	2
0	26516	33.95	2
0	26529	34	1
0	26530	34	3
0	26531	34	2
0	26532	34	2
0	26537	34	1
0	26538	34	3
0	26539	34	2
0	26540	34	2
0	26561	34.05	1
0	26562	34.05	3
0	26563	34.05	2
0	26564	34.05	2
0	26580	34.1	1
0	26581	34.1	3
0	26582	34.1	2
0	26583	34.1	2
0	26588	34.1	1
0	26589	34.1	3
0	26590	34.1	2
0	26591	34.1	2
0	26723	34.15	1
0	26724	34.15	3
0	26725	34.15	2
0	26726	34.15	2
0	26739	34.2	1
0	26740	34.2	3
0	26741	34.2	2
0	26742	34.2	2
0	26747	34.2	1
0	26748	34.2	3
0	26749	34.2	2
0	26750	34.2	2
0	26771	34.25	1
0	26772	34.25	3
0	26773	34.25	2
0	26774	34.25	2
0	26787	34.3	1
0	26788	34.3	3
0	26789	34.3	2
0	26790	34.3	2
0	26795	34.3	1
0	26796	34.3	3
0	26797	34.3	2
0	26798	34.3	2
0	26819	34.35	1
0	26820	34.35	3
0	26821	34.35	2
0	26822	34.35	2
0	26835	34.4	1
0	26836	34.4	3
0	26837	34.4	2
0	26838	34.4	2
0	26843	34.4	1
0	26844	34.4	3
0	26845	34.4	2
0	26846	34.4	2
0	26867	34.45	1
0	26868	34.45	3
0	26869	34.45	2
0	26870	34.45	2
0	26883	34.5	1
0	26884	34.5	3
0	26885	34.5	2
0	26886	34.5	2
0	26891	34.5	1
0	26892	34.5	3
0	26893	34.5	2
0	26894	34.5	2
0	26915	34.55	1
0	26916	34.55	3
0	26917	34.55	2
0	26918	34.55	2
0	26931	34.6	1
0	26932	34.6	3
0	26933	34.6	2
0	26934	34.6	2
0	26939	34.6	1
0	26940	34.6	3
0	26941	34.6	2
0	26942	34.6	2
0	26963	34.65	1
0	26964	34.65	3
0	26965	34.65	2
0	26966	34.65	2
0	27063	34.7	1
0	27064	34.7	3
0	27065	34.7	2
0	27066	34.7	2
0	27071	34.7	1
0	27072	34.7	3
0	27073	34.7	2
0	27074	34.7	2
0	27095	34.75	1
0	27096	34.75	3
0	27097	34.75	2
0	27098	34.75	2
0	27111	34.8	1
0	27112	34.8	3
0	27113	34.8	2
0	27114	34.8	2
0	27119	34.8	1
0	27120	34.8	3
0	27121	34.8	2
0	27122	34.8	2
0	27143	34.85	1
0	27144	34.85	3
0	27145	34.85	2
0	27146	34.85	2
0	27159	34.9	1
0	27160	34.9	3
0	27161	34.9	2
0	27162	34.9	2
0	27167	34.9	1
0	27168	34.9	3
0	27169	34.9	2
0	27170	34.9	2
0	27191	34.95	1
0	27192	34.95	3
0	27193	34.95	2
0	27194	34.95	2
0	27237	35	1
0	27238	35	3
0	27239	35	2
0	27240	35	2
0	27245	35	1
0	27246	35	3
0	27247	35	2
0	27248	35	2
0	27282	35.05	1
0	27283	35.05	3
0	27284	35.05	2
0	27285	35.05	2
0	27311	35.1	1
0	27312	35.1	3
0	27313	35.1	2
0	27314	35.1	2
0	27319	35.1	1
0	27320	35.1	3
0	27321	35.1	2
0	27322	35.1	2
0	27360	35.15	1
0	27361	35.15	3
0	27362	35.15	2
0	27363	35.15	2
0	27376	35.2	1
0	27377	35.2	3
0	27378	35.2	2
0	27379	35.2	2
0	27384	35.2	1
0	27385	35.2	3
0	27386	35.2	2
0	27387	35.2	2
0	27504	35.25	1
0	27505	35.25	3
0	27506	35.25	2
0	27507	35.25	2
0	27520	35.3	1
0	27521	35.3	3
0	27522	35.3	2
0	27523	35.3	2
0	27528	35.3	1
0	27529	35.3	3
0	27530	35.3	2
0	27531	35.3	2
0	27552	35.35	1
0	27553	35.35	3
0	27554	35.35	2
0	27555	35.35	2
0	27568	35.4	1
0	27569	35.4	3
0	27570	35.4	2
0	27571	35.4	2
0	27576	35.4	1
0	27577	35.4	3
0	27578	35.4	2
0	27579	35.4	2
0	27600	35.45	1
0	27601	35.45	3
0	27602	35.45	2
0	27603	35.45	2
0	27616	35.5	1
0	27617	35.5	3
0	27618	35.5	2
0	27619	35.5	2
0	27624	35.5	1
0	27625	35.5	3
0	27626	35.5	2
0	27627	35.5	2
0	27676	35.55	1
0	27677	35.55	3
0	27678	35.55	2
0	27679	35.55	2
0	27707	35.6	1
0	27708	35.6	3
0	27709	35.6	2
0	27710	35.6	2
0	27715	35.6	1
0	27716	35.6	3
0	27717	35.6	2
0	27718	35.6	2
0	27740	35.65	1
0	27741	35.65	3
0	27742	35.65	2
0	27743	35.65	2
0	27766	35.7	1
0	27767	35.7	3
0	27768	35.7	2
0	27769	35.7	2
0	27774	35.7	1
0	27775	35.7	3
0	27776	35.7	2
0	27777	35.7	2
0	27798	35.75	1
0	27799	35.75	3
0	27800	35.75	2
0	27801	35.75	2
0	27898	35.8	1
0	27899	35.8	3
0	27900	35.8	2
0	27901	35.8	2
0	27906	35.8	1
0	27907	35.8	3
0	27908	35.8	2
0	27909	35.8	2
0	27930	35.85	1
0	27931	35.85	3
0	27932	35.85	2
0	27933	35.85	2
0	27946	35.9	1
0	27947	35.9	3
0	27948	35.9	2
0	27949	35.9	2
0	27954	35.9	1
0	27955	35.9	3
0	27956	35.9	2
0	27957	35.9	2
0	27978	35.95	1
0	27979	35.95	3
0	27980	35.95	2
0	27981	35.95	2
0	27994	36	1
0	27995	36	3
0	27996	36	2
0	27997	36	2
0	28002	36	1
0	28003	36	3
0	28004	36	2
0	28005	36	2
0	28026	36.05	1
0	28027	36.05	3
0	28028	36.05	2
0	28029	36.05	2
0	28048	36.1	1
0	28049	36.1	3
0	28050	36.1	2
0	28051	36.1	2
0	28055	36.1	1
0	28056	36.1	3
0	28057	36.1	2
0	28058	36.1	2
0	28082	36.15	1
0	28083	36.15	3
0	28084	36.15	2
0	28085	36.15	2
0	28098	36.2	1
0	28099	36.2	3
0	28100	36.2	2
0	28101	36.2	2
0	28105	36.2	1
0	28106	36.2	3
0	28107	36.2	2
0	28108	36.2	2
0	28129	36.25	1
0	28130	36.25	3
0	28131	36.25	2
0	28132	36.25	2
0	28145	36.3	1
0	28146	36.3	3
0	28147	36.3	2
0	28148	36.3	2
0	28152	36.3	1
0	28153	36.3	3
0	28154	36.3	2
0	28155	36.3	2
0	28294	36.35	1
0	28295	36.35	3
0	28296	36.35	2
0	28297	36.35	2
0	28346	36.4	1
0	28347	36.4	3
0	28348	36.4	2
0	28349	36.4	2
0	28353	36.4	1
0	28354	36.4	3
0	28355	36.4	2
0	28356	36.4	2
0	28391	36.45	1
0	28392	36.45	3
0	28393	36.45	2
0	28394	36.45	2
0	28407	36.5	1
0	28408	36.5	3
0	28409	36.5	2
0	28410	36.5	2
0	28414	36.5	1
0	28415	36.5	3
0	28416	36.5	2
0	28417	36.5	2
0	28438	36.55	1
0	28439	36.55	3
0	28440	36.55	2
0	28441	36.55	2
0	28454	36.6	1
0	28455	36.6	3
0	28456	36.6	2
0	28457	36.6	2
0	28461	36.6	1
0	28462	36.6	3
0	28463	36.6	2
0	28464	36.6	2
0	28485	36.65	1
0	28486	36.65	3
0	28487	36.65	2
0	28488	36.65	2
0	28501	36.7	2
0	28502	36.7	3
0	28503	36.7	2
0	28504	36.7	3
0	28508	36.7	2
0	28509	36.7	3
0	28510	36.7	2
0	28511	36.7	3
0	28532	36.75	2
0	28533	36.75	3
0	28534	36.75	2
0	28535	36.75	3
0	28548	36.8	2
0	28549	36.8	3
0	28550	36.8	2
0	28551	36.8	3
0	28555	36.8	2
0	28556	36.8	3
0	28557	36.8	2
0	28558	36.8	3
0	28579	36.85	2
0	28580	36.85	3
0	28581	36.85	2
0	28582	36.85	3
0	28679	36.9	2
0	28680	36.9	3
0	28681	36.9	2
0	28682	36.9	3
0	28686	36.9	2
0	28687	36.9	3
0	28688	36.9	2
0	28689	36.9	3
0	28710	36.95	2
0	28711	36.95	3
0	28712	36.95	2
0	28713	36.95	3
0	28726	37	2
0	28727	37	3
0	28728	37	2
0	28729	37	3
0	28733	37	2
0	28734	37	3
0	28735	37	2
0	28736	37	3
0	28757	37.05	2
0	28758	37.05	3
0	28759	37.05	2
0	28760	37.05	3
0	28776	37.1	2
0	28777	37.1	3
0	28778	37.1	2
0	28779	37.1	3
0	28783	37.1	2
0	28784	37.1	3
0	28785	37.1	2
0	28786	37.1	3
0	28810	37.15	2
0	28811	37.15	3
0	28812	37.15	2
0	28813	37.15	3
0	28826	37.2	2
0	28827	37.2	3
0	28828	37.2	2
0	28829	37.2	3
0	28833	37.2	2
0	28834	37.2	3
0	28835	37.2	2
0	28836	37.2	3
0	28857	37.25	2
0	28858	37.25	3
0	28859	37.25	2
0	28860	37.25	3
0	28876	37.3	2
0	28877	37.3	3
0	28878	37.3	2
0	28879	37.3	3
0	28883	37.3	2
0	28884	37.3	3
0	28885	37.3	2
0	28886	37.3	3
0	28907	37.35	2
0	28908	37.35	3
0	28909	37.35	2
0	28910	37.35	3
0	28923	37.4	2
0	28924	37.4	3
0	28925	37.4	2
0	28926	37.4	3
0	28930	37.4	2
0	28931	37.4	3
0	28932	37.4	2
0	28933	37.4	3
0	29062	37.45	2
0	29063	37.45	3
0	29064	37.45	2
0	29065	37.45	3
0	29078	37.5	2
0	29079	37.5	3
0	29080	37.5	2
0	29081	37.5	3
0	29085	37.5	2
0	29086	37.5	3
0	29087	37.5	2
0	29088	37.5	3
0	29109	37.55	2
0	29110	37.55	3
0	29111	37.55	2
0	29112	37.55	3
0	29125	37.6	2
0	29126	37.6	3
0	29127	37.6	2
0	29128	37.6	3
0	29132	37.6	2
0	29133	37.6	3
0	29134	37.6	2
0	29135	37.6	3
0	29156	37.65	2
0	29157	37.65	3
0	29158	37.65	2
0	29159	37.65	3
0	29175	37.7	2
0	29176	37.7	3
0	29177	37.7	2
0	29178	37.7	3
0	29182	37.7	2
0	29183	37.7	3
0	29184	37.7	2
0	29185	37.7	3
0	29206	37.75	2
0	29207	37.75	3
0	29208	37.75	2
0	29209	37.75	3
0	29239	37.8	2
0	29240	37.8	3
0	29241	37.8	2
0	29242	37.8	3
0	29246	37.8	2
0	29247	37.8	3
0	29248	37.8	2
0	29249	37.8	3
0	29270	37.85	2
0	29271	37.85	3
0	29272	37.85	2
0	29273	37.85	3
0	29286	37.9	2
0	29287	37.9	3
0	29288	37.9	2
0	29289	37.9	3
0	29293	37.9	2
0	29294	37.9	3
0	29295	37.9	2
0	29296	37.9	3
0	29317	37.95	2
0	29318	37.95	3
0	29319	37.95	2
0	29320	37.95	3
0	29417	38	2
0	29418	38	3
0	29419	38	2
0	29420	38	3
0	29424	38	2
0	29425	38	3
0	29426	38	2
0	29427	38	3
0	29448	38.05	2
0	29449	38.05	3
0	29450	38.05	2
0	29451	38.05	3
0	29467	38.1	2
0	29468	38.1	3
0	29469	38.1	2
0	29470	38.1	3
0	29474	38.1	2
0	29475	38.1	3
0	29476	38.1	2
0	29477	38.1	3
0	29501	38.15	2
0	29502	38.15	3
0	29503	38.15	2
0	29504	38.15	3
0	29517	38.2	2
0	29518	38.2	3
0	29519	38.2	2
0	29520	38.2	3
0	29524	38.2	2
0	29525	38.2	3
0	29526	38.2	2
0	29527	38.2	3
0	29548	38.25	2
0	29549	38.25	3
0	29550	38.25	2
0	29551	38.25	3
0	29564	38.3	2
0	29565	38.3	3
0	29566	38.3	2
0	29567	38.3	3
0	29571	38.3	2
0	29572	38.3	3
0	29573	38.3	2
0	29574	38.3	3
0	29605	38.35	2
0	29606	38.35	3
0	29607	38.35	2
0	29608	38.35	3
0	29621	38.4	2
0	29622	38.4	3
0	29623	38.4	2
0	29624	38.4	3
0	29628	38.4	2
0	29629	38.4	3
0	29630	38.4	2
0	29631	38.4	3
0	29652	38.45	2
0	29653	38.45	3
0	29654	38.45	2
0	29655	38.45	3
0	29671	38.5	2
0	29672	38.5	3
0	29673	38.5	2
0	29674	38.5	3
0	29678	38.5	2
0	29679	38.5	3
0	29680	38.5	2
0	29681	38.5	3
0	29810	38.55	2
0	29811	38.55	3
0	29812	38.55	2
0	29813	38.55	3
0	29826	38.6	2
0	29827	38.6	3
0	29828	38.6	2
0	29829	38.6	3
0	29833	38.6	2
0	29834	38.6	3
0	29835	38.6	2
0	29836	38.6	3
0	29857	38.65	2
0	29858	38.65	3
0	29859	38.65	2
0	29860	38.65	3
0	29873	38.7	1
0	29874	38.7	2
0	29875	38.7	2
0	29876	38.7	3
0	29880	38.7	1
0	29881	38.7	2
0	29882	38.7	2
0	29883	38.7	3
0	29904	38.75	1
0	29905	38.75	2
0	29906	38.75	2
0	29907	38.75	3
0	29920	38.8	1
0	29921	38.8	2
0	29922	38.8	2
0	29923	38.8	3
0	29927	38.8	1
0	29928	38.8	2
0	29929	38.8	2
0	29930	38.8	3
0	29951	38.85	1
0	29952	38.85	2
0	29953	38.85	2
0	29954	38.85	3
0	29967	38.9	1
0	29968	38.9	2
0	29969	38.9	2
0	29970	38.9	3
0	29974	38.9	1
0	29975	38.9	2
0	29976	38.9	2
0	29977	38.9	3
0	29998	38.95	1
0	29999	38.95	2
0	30000	38.95	2
0	30001	38.95	3
0	30014	39	1
0	30015	39	2
0	30016	39	2
0	30017	39	3
0	30021	39	1
0	30022	39	2
0	30023	39	2
0	30024	39	3
0	30045	39.05	1
0	30046	39.05	2
0	30047	39.05	2
0	30048	39.05	3
0	30148	39.1	1
0	30149	39.1	2
0	30150	39.1	2
0	30151	39.1	3
0	30155	39.1	1
0	30156	39.1	2
0	30157	39.1	2
0	30158	39.1	3
0	30182	39.15	1
0	30183	39.15	2
0	30184	39.15	2
0	30185	39.15	3
0	30198	39.2	1
0	30199	39.2	2
0	30200	39.2	2
0	30201	39.2	3
0	30205	39.2	1
0	30206	39.2	2
0	30207	39.2	2
0	30208	39.2	3
0	30229	39.25	1
0	30230	39.25	2
0	30231	39.25	2
0	30232	39.25	3
0	30245	39.3	1
0	30246	39.3	2
0	30247	39.3	2
0	30248	39.3	3
0	30252	39.3	1
0	30253	39.3	2
0	30254	39.3	2
0	30255	39.3	3
0	30276	39.35	1
0	30277	39.35	2
0	30278	39.35	2
0	30279	39.35	3
0	30292	39.4	1
0	30293	39.4	2
0	30294	39.4	2
0	30295	39.4	3
0	30299	39.4	1
0	30300	39.4	2
0	30301	39.4	2
0	30302	39.4	3
0	30323	39.45	1
0	30324	39.45	2
0	30325	39.45	2
0	30326	39.45	3
0	30339	39.5	1
0	30340	39.5	2
0	30341	39.5	2
0	30342	39.5	3
0	30346	39.5	1
0	30347	39.5	2
0	30348	39.5	2
0	30349	39.5	3
0	30370	39.55	1
0	30371	39.55	2
0	30372	39.55	2
0	30373	39.55	3
0	30386	39.6	1
0	30387	39.6	2
0	30388	39.6	2
0	30389	39.6	3
0	30393	39.6	1
0	30394	39.6	2
0	30395	39.6	2
0	30396	39.6	3
0	30525	39.65	1
0	30526	39.65	2
0	30527	39.65	2
0	30528	39.65	3
0	30541	39.7	1
0	30542	39.7	2
0	30543	39.7	2
0	30544	39.7	3
0	30548	39.7	1
0	30549	39.7	2
0	30550	39.7	2
0	30551	39.7	3
0	30572	39.75	1
0	30573	39.75	2
0	30574	39.75	2
0	30575	39.75	3
0	30588	39.8	1
0	30589	39.8	2
0	30590	39.8	2
0	30591	39.8	3
0	30595	39.8	1
0	30596	39.8	2
0	30597	39.8	2
0	30598	39.8	3
0	30619	39.85	1
0	30620	39.85	2
0	30621	39.85	2
0	30622	39.85	3
0	30635	39.9	1
0	30636	39.9	2
0	30637	39.9	2
0	30638	39.9	3
0	30642	39.9	1
0	30643	39.9	2
0	30644	39.9	2
0	30645	39.9	3
0	30680	39.95	1
0	30681	39.95	2
0	30682	39.95	2
0	30683	39.95	3
0	30696	40	1
0	30697	40	2
0	30698	40	2
0	30699	40	3
0	30703	40	1
0	30704	40	2
0	30705	40	2
0	30706	40	3
0	30727	40.05	1
0	30728	40.05	2
0	30729	40.05	2
0	30730	40.05	3
0	30797	40.1	1
0	30798	40.1	2
0	30799	40.1	2
0	30800	40.1	3
0	30804	40.1	1
0	30805	40.1	2
0	30806	40.1	2
0	30807	40.1	3
0	30858	40.15	1
0	30859	40.15	2
0	30860	40.15	2
0	30861	40.15	3
0	31004	40.2	1
0	31005	40.2	2
0	31006	40.2	2
0	31007	40.2	3
0	31011	40.2	1
0	31012	40.2	2
0	31013	40.2	2
0	31014	40.2	3
0	31036	40.25	1
0	31037	40.25	2
0	31038	40.25	2
0	31039	40.25	3
0	31052	40.3	1
0	31053	40.3	2
0	31054	40.3	2
0	31055	40.3	3
0	31059	40.3	1
0	31060	40.3	2
0	31061	40.3	2
0	31062	40.3	3
0	31083	40.35	1
0	31084	40.35	2
0	31085	40.35	2
0	31086	40.35	3
0	31099	40.4	1
0	31100	40.4	2
0	31101	40.4	2
0	31102	40.4	3
0	31106	40.4	1
0	31107	40.4	2
0	31108	40.4	2
0	31109	40.4	3
0	31130	40.45	1
0	31131	40.45	2
0	31132	40.45	2
0	31133	40.45	3
0	31156	40.5	1
0	31157	40.5	2
0	31158	40.5	2
0	31159	40.5	3
0	31163	40.5	1
0	31164	40.5	2
0	31165	40.5	2
0	31166	40.5	3
0	31187	40.55	1
0	31188	40.55	2
0	31189	40.55	2
0	31190	40.55	3
0	31203	40.6	1
0	31204	40.6	2
0	31205	40.6	2
0	31206	40.6	3
0	31210	40.6	1
0	31211	40.6	2
0	31212	40.6	2
0	31213	40.6	3
0	31244	40.65	1
0	31245	40.65	2
0	31246	40.65	2
0	31247	40.65	3
0	31260	40.7	1
0	31261	40.7	2
0	31262	40.7	2
0	31263	40.7	3
0	31267	40.7	1
0	31268	40.7	2
0	31269	40.7	2
0	31270	40.7	3
0	31364	40.75	1
0	31365	40.75	2
0	31366	40.75	2
0	31367	40.75	3
0	31380	40.8	1
0	31381	40.8	2
0	31382	40.8	2
0	31383	40.8	3
0	31387	40.8	1
0	31388	40.8	2
0	31389	40.8	2
0	31390	40.8	3
0	31411	40.85	1
0	31412	40.85	2
0	31413	40.85	2
0	31414	40.85	3
0	31427	40.9	1
0	31428	40.9	2
0	31429	40.9	2
0	31430	40.9	3
0	31434	40.9	1
0	31435	40.9	2
0	31436	40.9	2
0	31437	40.9	3
0	31458	40.95	1
0	31459	40.95	2
0	31460	40.95	2
0	31461	40.95	3
0	31474	41	1
0	31475	41	2
0	31476	41	2
0	31477	41	3
0	31481	41	1
0	31482	41	2
0	31483	41	2
0	31484	41	3
0	31519	41.05	1
0	31520	41.05	2
0	31521	41.05	2
0	31522	41.05	3
0	31538	41.1	1
0	31539	41.1	2
0	31540	41.1	2
0	31541	41.1	3
0	31545	41.1	1
0	31546	41.1	2
0	31547	41.1	2
0	31548	41.1	3
0	31572	41.15	1
0	31573	41.15	2
0	31574	41.15	2
0	31575	41.15	3
0	31591	41.2	1
0	31592	41.2	2
0	31593	41.2	2
0	31594	41.2	3
0	31598	41.2	1
0	31599	41.2	2
0	31600	41.2	2
0	31601	41.2	3
0	31622	41.25	1
0	31623	41.25	2
0	31624	41.25	2
0	31625	41.25	3
0	31750	41.3	1
0	31751	41.3	2
0	31752	41.3	2
0	31753	41.3	3
0	31757	41.3	1
0	31758	41.3	2
0	31759	41.3	2
0	31760	41.3	3
0	31821	41.35	1
0	31822	41.35	2
0	31823	41.35	2
0	31824	41.35	3
0	31870	41.4	1
0	31871	41.4	2
0	31872	41.4	2
0	31873	41.4	3
0	31877	41.4	1
0	31878	41.4	2
0	31879	41.4	2
0	31880	41.4	3
0	31929	41.45	1
0	31930	41.45	2
0	31931	41.45	2
0	31932	41.45	3
0	31945	41.5	1
0	31946	41.5	2
0	31947	41.5	2
0	31948	41.5	3
0	31952	41.5	1
0	31953	41.5	2
0	31954	41.5	2
0	31955	41.5	3
0	31976	41.55	1
0	31977	41.55	2
0	31978	41.55	2
0	31979	41.55	3
0	31992	41.6	1
0	31993	41.6	2
0	31994	41.6	2
0	31995	41.6	3
0	31999	41.6	1
0	32000	41.6	2
0	32001	41.6	2
0	32002	41.6	3
0	32023	41.65	1
0	32024	41.65	2
0	32025	41.65	2
0	32026	41.65	3
0	32039	41.7	1
0	32040	41.7	2
0	32041	41.7	2
0	32042	41.7	3
0	32046	41.7	1
0	32047	41.7	2
0	32048	41.7	2
0	32049	41.7	3
0	32070	41.75	1
0	32071	41.75	2
0	32072	41.75	2
0	32073	41.75	3
0	32086	41.8	1
0	32087	41.8	2
0	32088	41.8	2
0	32089	41.8	3
0	32093	41.8	1
0	32094	41.8	2
0	32095	41.8	2
0	32096	41.8	3
0	32199	41.85	1
0	32200	41.85	2
0	32201	41.85	2
0	32202	41.85	3
0	32215	41.9	1
0	32216	41.9	2
0	32217	41.9	2
0	32218	41.9	3
0	32222	41.9	1
0	32223	41.9	2
0	32224	41.9	2
0	32225	41.9	3
0	32246	41.95	1
0	32247	41.95	2
0	32248	41.95	2
0	32249	41.95	3
0	32276	42	1
0	32277	42	2
0	32278	42	2
0	32279	42	3
0	32283	42	1
0	32284	42	2
0	32285	42	2
0	32286	42	3
0	32307	42.05	1
0	32308	42.05	2
0	32309	42.05	2
0	32310	42.05	3
0	32326	42.1	1
0	32327	42.1	2
0	32328	42.1	2
0	32329	42.1	3
0	32333	42.1	1
0	32334	42.1	2
0	32335	42.1	2
0	32336	42.1	3
0	32360	42.15	1
0	32361	42.15	2
0	32362	42.15	2
0	32363	42.15	3
0	32376	42.2	1
0	32377	42.2	2
0	32378	42.2	2
0	32379	42.2	3
0	32383	42.2	1
0	32384	42.2	2
0	32385	42.2	2
0	32386	42.2	3
0	32407	42.25	1
0	32408	42.25	2
0	32409	42.25	2
0	32410	42.25	3
0	32423	42.3	1
0	32424	42.3	2
0	32425	42.3	2
0	32426	42.3	3
0	32430	42.3	1
0	32431	42.3	2
0	32432	42.3	2
0	32433	42.3	3
0	32454	42.35	1
0	32455	42.35	2
0	32456	42.35	2
0	32457	42.35	3
0	32564	42.4	1
0	32565	42.4	2
0	32566	42.4	2
0	32567	42.4	3
0	32571	42.4	1
0	32572	42.4	2
0	32573	42.4	2
0	32574	42.4	3
0	32595	42.45	1
0	32596	42.45	2
0	32597	42.45	2
0	32598	42.45	3
0	32611	42.5	1
0	32612	42.5	2
0	32613	42.5	2
0	32614	42.5	3
0	32618	42.5	1
0	32619	42.5	2
0	32620	42.5	2
0	32621	42.5	3
0	32656	42.55	1
0	32657	42.55	2
0	32658	42.55	2
0	32659	42.55	3
0	32672	42.6	1
0	32673	42.6	2
0	32674	42.6	2
0	32675	42.6	3
0	32679	42.6	1
0	32680	42.6	2
0	32681	42.6	2
0	32682	42.6	3
0	32706	42.65	1
0	32707	42.65	2
0	32708	42.65	2
0	32709	42.65	3
0	32722	42.7	1
0	32723	42.7	2
0	32724	42.7	2
0	32725	42.7	3
0	32729	42.7	1
0	32730	42.7	2
0	32731	42.7	2
0	32732	42.7	3
0	32753	42.75	1
0	32754	42.75	2
0	32755	42.75	2
0	32756	42.75	3
0	32803	42.8	1
0	32804	42.8	2
0	32805	42.8	2
0	32806	42.8	3
0	32810	42.8	1
0	32811	42.8	2
0	32812	42.8	2
0	32813	42.8	3
0	32862	42.85	1
0	32863	42.85	2
0	32864	42.85	2
0	32865	42.85	3
0	32878	42.9	1
0	32879	42.9	2
0	32880	42.9	2
0	32881	42.9	3
0	32885	42.9	1
0	32886	42.9	2
0	32887	42.9	2
0	32888	42.9	3
0	32979	42.95	1
0	32980	42.95	2
0	32981	42.95	2
0	32982	42.95	3
0	32995	43	1
0	32996	43	2
0	32997	43	2
0	32998	43	3
0	33002	43	1
0	33003	43	2
0	33004	43	2
0	33005	43	3
0	33026	43.05	1
0	33027	43.05	2
0	33028	43.05	2
0	33029	43.05	3
0	33059	43.1	1
0	33060	43.1	2
0	33061	43.1	2
0	33062	43.1	3
0	33066	43.1	1
0	33067	43.1	2
0	33068	43.1	2
0	33069	43.1	3
0	33093	43.15	1
0	33094	43.15	2
0	33095	43.15	2
0	33096	43.15	3
0	33123	43.2	1
0	33124	43.2	2
0	33125	43.2	2
0	33126	43.2	3
0	33130	43.2	1
0	33131	43.2	2
0	33132	43.2	2
0	33133	43.2	3
0	33154	43.25	1
0	33155	43.25	2
0	33156	43.25	2
0	33157	43.25	3
0	33170	43.3	1
0	33171	43.3	2
0	33172	43.3	2
0	33173	43.3	3
0	33177	43.3	1
0	33178	43.3	2
0	33179	43.3	2
0	33180	43.3	3
0	33239	43.35	1
0	33240	43.35	2
0	33241	43.35	2
0	33242	43.35	3
0	33285	43.4	1
0	33286	43.4	2
0	33287	43.4	2
0	33288	43.4	3
0	33292	43.4	1
0	33293	43.4	2
0	33294	43.4	2
0	33295	43.4	3
0	33316	43.45	1
0	33317	43.45	2
0	33318	43.45	2
0	33319	43.45	3
0	33414	43.5	1
0	33415	43.5	2
0	33416	43.5	2
0	33417	43.5	3
0	33421	43.5	1
0	33422	43.5	2
0	33423	43.5	2
0	33424	43.5	3
0	33445	43.55	1
0	33446	43.55	2
0	33447	43.55	2
0	33448	43.55	3
0	33461	43.6	1
0	33462	43.6	2
0	33463	43.6	2
0	33464	43.6	3
0	33468	43.6	1
0	33469	43.6	2
0	33470	43.6	2
0	33471	43.6	3
0	33506	43.65	1
0	33507	43.65	2
[...]
2	44999	60.111589439338	33417
2	45009	60.125429535542	33558
2	45019	60.139269631811	33699
2	45047	60.153109728146	33840
2	45058	60.166949824547	33981
2	45068	60.180789921012	34122
2	45078	60.194630017542	34263
2	45121	60.208470114138	34404
2	45142	60.228273279455	34545
2	45687	61.078350424867	34686
2	45697	61.092190434171	34827
2	45744	61.106030443477	34968
2	45754	61.119870452786	35109
2	45764	61.133710462096	35250
2	45774	61.14755047141	35391
2	45803	61.161390480725	35532
2	45813	61.175230490044	35673
2	45823	61.189070499364	35814
2	45864	61.202910508687	35955
2	45874	61.216750518012	36096
2	45884	61.23059052734	36237
2	45894	61.24443053667	36378
2	45920	61.258270546002	36519
2	46173	61.632959683705	36660
2	46556	62.18314209759	36801
2	46566	62.196982202241	36942
2	46607	62.210822306939	37083
2	46617	62.224662411681	37224
2	46644	62.252342621301	37365
2	46764	62.42826792082	37506
2	46774	62.44210791576	37647
2	47374	63.282961616677	37788
2	47379	63.28315390447	37929
2	47390	63.296801626365	38070
2	47395	63.29699401213	38211
2	47440	63.310641636056	38352
2	47445	63.310834119819	38493
2	47456	63.32448164575	38634
2	47461	63.324674227537	38775
2	47471	63.338321655446	38916
2	47497	63.352161665144	39057
2	47507	63.366001674845	39198
2	47648	63.537948103171	39339
2	48258	64.382962938154	39480
2	48263	64.383165970897	39621
2	48274	64.396802948039	39762
2	48279	64.39700608016	39903
2	48321	64.410642957927	40044
2	48326	64.410846189432	40185
2	48336	64.424482967817	40326
2	48346	64.438322977709	40467
2	48702	64.9379685605	40608
2	48728	64.951808570485	40749
2	49037	65.478356691064	40890
2	49279	65.87827264	41031
2	49578	66.278645802049	41172
2	49780	66.528729611051	41313
2	49787	66.542569534581	41454
2	49817	66.55640945782	41595
2	49851	66.570249380769	41736
2	50268	67.128359173277	41877
2	50278	67.142199183666	42018
2	50304	67.156039194057	42159
2	50314	67.169879204451	42300
2	50324	67.183719214848	42441
2	50334	67.197559225247	42582
2	50377	67.211399235649	42723
2	51032	68.228360869542	42864
2	51188	68.47827264	43005
2	51198	68.49211264	43146
2	51239	68.50595264	43287
2	51775	69.32836259956	43428
2	52010	69.72827264	43569
2	52020	69.74211264	43710
2	52046	69.75595264	43851
2	52263	70.092541334949	43992
2	52411	70.27827264	44133
2	52903	70.988045274825	44274
2	52946	71.001885285955	44415
2	53283	71.538046178889	44556
2	53730	72.228456111844	44697
2	53885	72.47827264	44838
2	53895	72.49211264	44979
2	54484	73.328460201338	45120
2	54634	73.57827264	45261
2	55196	74.428371076418	45402
2	55356	74.678267960386	45543
2	55702	75.22826774158	45684
2	55910	75.528373006326	45825
2	56236	75.978551305661	45966
2	56246	75.992391177215	46107
2	56289	76.006231068729	46248
2	56300	76.020070985932	46389
2	56310	76.03391090316	46530
2	56320	76.047750820414	46671
2	56352	76.061590737693	46812
2	56367	76.075430654997	46953
2	56377	76.089270572327	47094
2	56426	76.116950407064	47235
2	56436	76.130790324472	47376
2	56446	76.144630241905	47517
2	56474	76.158470159364	47658
2	56484	76.172310076849	47799
2	56494	76.18614999436	47940
2	56750	76.528544442599	48081
2	56760	76.542384360799	48222
2	56786	76.556224279026	48363
2	57214	77.178373860823	48504
2	57224	77.192213860823	48645
2	57264	77.206053860823	48786
2	57274	77.219893860823	48927
2	57284	77.233733860823	49068
2	57294	77.247573860823	49209
2	57329	77.261413860823	49350
2	57344	77.275253860823	49491
2	57354	77.289093860823	49632
2	57394	77.302933860823	49773
2	57404	77.316773860823	49914
2	57414	77.330613860823	50055
2	57424	77.344453860823	50196
2	57450	77.358293860823	50337
2	57460	77.372133860823	50478
2	57470	77.385973860823	50619
2	57480	77.399813860823	50760
2	57520	77.413653860823	50901
2	57530	77.427493860823	51042
2	57580	77.478270507667	51183
2	57590	77.492110521689	51324
2	58111	78.278373860823	51465
2	58383	78.683109241142	51606
2	58393	78.696949164193	51747
2	58442	78.710789087277	51888
2	58462	78.724629010396	52029
2	58472	78.728750842095	52170
2	58499	78.756430842161	52311
2	58832	79.233105193127	52452
2	58842	79.246945117563	52593
2	59311	79.938053860823	52734
2	59337	79.951893860823	52875
2	59347	79.965733860823	53016
2	59357	79.979573860823	53157
2	59367	79.993413860823	53298
2	59409	80.007253860823	53439
2	59431	80.021093860823	53580
2	59441	80.034933860823	53721
2	59725	80.488053860823	53862
2	59910	80.778281328669	54003
2	59920	80.79212135967	54144
2	59960	80.805961390748	54285
2	60030	80.887900655907	54426
2	60431	81.433089768214	54567
2	60441	81.446929698571	54708
2	60467	81.460769628966	54849
2	60477	81.474609559399	54990
2	60487	81.488449489871	55131
2	60937	82.138053860823	55272
2	60963	82.151893860823	55413
2	60973	82.165733860823	55554
2	60983	82.179573860823	55695
2	60993	82.193413860823	55836
2	61035	82.207253860823	55977
2	61057	82.221093860823	56118
2	61067	82.234933860823	56259
2	61262	82.533356523128	56400
2	61538	82.978293373559	56541
2	61548	82.992133417575	56682
2	61604	83.028748930894	56823
2	61939	83.528297069818	56964
2	62347	84.178463020334	57105
2	62357	84.192302958469	57246
2	62397	84.206142896644	57387
2	62407	84.219982834859	57528
2	62417	84.233822773113	57669
2	62661	84.633271504848	57810
2	63149	85.378373860823	57951
2	63159	85.392213860823	58092
2	63201	85.406053860823	58233
2	63211	85.419893860823	58374
2	63221	85.433733860823	58515
2	63231	85.447573860823	58656
2	63257	85.461413860823	58797
2	63267	85.475253860823	58938
2	63274	85.489093860823	59079
2	63316	85.502933860823	59220
2	63572	85.828448570269	59361
2	63582	85.84228851307	59502
2	63957	86.378444003769	59643
2	64380	87.028373860823	59784
2	64390	87.042213860823	59925
2	64418	87.056053860823	60066
2	64428	87.069893860823	60207
2	64435	87.083733860823	60348
2	64638	87.378332324082	60489
2	64648	87.392172403273	60630
2	64690	87.4060124826	60771
2	64809	87.578373860823	60912
2	64819	87.592213860823	61053
2	65149	88.028431039449	61194
2	65159	88.042270988284	61335
2	65185	88.056110937157	61476
2	65195	88.069950886066	61617
2	65540	88.578426958298	61758
2	65908	89.128422994587	61899
2	66178	89.578361666508	62040
2	66188	89.59220176996	62181
2	66554	90.128368368559	62322
2	66715	90.328373860823	62463
2	66725	90.342213860823	62604
2	66753	90.356053860823	62745
2	66760	90.369893860823	62886
2	66770	90.383733860823	63027
2	66780	90.397573860823	63168
2	66818	90.411413860823	63309
2	66828	90.425253860823	63450
2	66838	90.439093860823	63591
2	67078	90.778416889775	63732
2	67088	90.792256889775	63873
2	67126	90.806096889775	64014
2	67136	90.819936889775	64155
2	67518	91.428373860823	64296
2	67528	91.442213860823	64437
2	67556	91.456053860823	64578
2	67566	91.469893860823	64719
2	67576	91.483733860823	64860
3	754	1.156852969044	141
3	759	1.15685536	282
3	764	1.156892807505	423
3	784	1.170692966851	564
3	789	1.17069536	705
3	794	1.170732807505	846
3	1690	2.256853243533	987
3	1695	2.25685536	1128
3	1700	2.256892395659	1269
3	2596	3.356854389323	1410
3	2601	3.35685536	1551
3	2606	3.356892732264	1692
3	3502	4.45685536	1833
3	3507	4.456856382318	1974
3	3512	4.456893722462	2115
3	4408	5.55685536	2256
3	4413	5.556859242339	2397
3	4418	5.55689408	2538
3	5314	6.65685536	2679
3	5319	6.656863031423	2820
3	5324	6.65689408	2961
3	5796	7.20685536	3102
3	5801	7.206865305056	3243
3	5806	7.20689408	3384
3	6702	8.30685536	3525
3	6707	8.306870694722	3666
3	6712	8.30689408	3807
3	7608	9.40685536	3948
3	7613	9.406877351083	4089
3	7618	9.40689408	4230
3	8514	10.50685536	4371
3	8519	10.50688548402	4512
3	8524	10.50689408	4653
3	9420	11.60685536	4794
3	9425	11.60689408	4935
3	9430	11.60689534358	5076
3	9873	12.152294754998	5217
3	9884	12.15685536	5358
3	9889	12.15689408	5499
3	10766	13.25685536	5640
3	10767	13.25685536	5781
3	10847	13.378394894223	5922
3	11664	14.35685536	6063
3	11665	14.35685536	6204
3	11745	14.478426725946	6345
3	12570	15.45685536	6486
3	12571	15.45685536	6627
3	13412	16.552295380478	6768
3	13421	16.55685536	6909
3	13422	16.55685536	7050
3	13442	16.566135528162	7191
3	13875	17.10685536	7332
3	13893	17.12069536	7473
3	14316	17.65685536	7614
3	14317	17.65685536	7755
3	14782	18.20685536	7896
3	14783	18.20685536	8037
3	15269	18.828598256293	8178
3	15279	18.842438554219	8319
3	15692	19.30685536	8460
3	15693	19.30685536	8601
3	15741	19.378622121953	8742
3	16557	20.40685536	8883
3	16558	20.40685536	9024
3	16957	20.952383166054	9165
3	17349	21.49259264	9306
3	17403	21.50685536	9447
3	17427	21.52069536	9588
3	17437	21.528702629688	9729
3	18170	22.59259264	9870
3	18226	22.60685536	10011
3	18232	22.607068377301	10152
3	18246	22.620908671331	10293
3	18634	23.14259264	10434
3	18665	23.15221536	10575
3	18675	23.16605536	10716
3	18685	23.17989536	10857
3	19066	23.697419258003	10998
3	19472	24.242533670021	11139
3	19477	24.24257408	11280
3	19507	24.256373668753	11421
3	19785	24.738427839983	11562
3	20301	25.342533571721	11703
3	20306	25.34257408	11844
3	20336	25.35641408	11985
3	20613	25.833463950681	12126
3	21126	26.442533478918	12267
3	21131	26.44257408	12408
3	21163	26.456373477788	12549
3	21902	27.542533392179	12690
3	21907	27.54257408	12831
3	22045	27.728748982128	12972
3	22052	27.742588987341	13113
3	22594	28.478757182416	13254
3	22791	28.647591185269	13395
3	22821	28.65223392	13536
3	22843	28.66607392	13677
3	22853	28.67991392	13818
3	23223	29.192533274561	13959
3	23228	29.19257408	14100
3	24030	30.292533205149	14241
3	24074	30.30221536	14382
3	24780	31.392533143418	14523
3	24785	31.39257408	14664
3	25362	32.270568353985	14805
3	25565	32.492533089737	14946
3	25570	32.49257408	15087
3	26304	33.592533044437	15228
3	26309	33.59257408	15369
3	26707	34.142533025024	15510
3	26712	34.14257408	15651
3	27274	35.034177727619	15792
3	27301	35.061858545383	15933
3	27497	35.24257408	16074
3	27695	35.556535349082	16215
3	27704	35.598057113779	16356
3	28278	36.342532955931	16497
3	28283	36.34257408	16638
3	28313	36.356372955456	16779
3	28323	36.370212955007	16920
3	28333	36.384052954586	17061
3	28343	36.397892954192	17202
3	28384	36.411732953825	17343
3	29046	37.442533010973	17484
3	29051	37.442570958829	17625
3	29794	38.542533284817	17766
3	29799	38.542579757025	17907
3	30509	39.642533813929	18048
3	30514	39.642610950985	18189
3	30780	40.078703342075	18330
3	30790	40.092542660961	18471
3	30834	40.106381970729	18612
3	30845	40.134060563313	18753
3	30855	40.147899846337	18894
3	30914	40.161739120659	19035
3	30957	40.175578386393	19176
3	30987	40.189417643652	19317
3	30997	40.192534182907	19458
3	31733	41.288201947079	19599
3	31743	41.292535144055	19740
3	31784	41.30204305614	19881
3	31794	41.315884169331	20022
3	31804	41.329725286534	20163
3	31814	41.343566407624	20304
3	31840	41.357407532475	20445
3	31850	41.371248660956	20586
3	31860	41.385089792931	20727
3	31867	41.398930928262	20868
3	31917	41.412772066807	21009
3	32192	41.838294994776	21150
3	32547	42.388269760838	21291
3	32557	42.392535927515	21432
3	32799	42.792395974573	21573
3	32837	42.80623716632	21714
3	32844	42.820078365128	21855
3	32854	42.833919570787	21996
3	33228	43.328656118843	22137
3	33235	43.342497342271	22278
3	33258	43.356338557694	22419
3	33268	43.370179764583	22560
3	33278	43.384020962413	22701
3	33407	43.492535927515	22842
3	33651	43.878733772807	22983
3	33661	43.892574332304	23124
3	34183	44.588202690086	23265
3	34193	44.592536651306	23406
3	34234	44.602042776102	23547
3	34244	44.615882862271	23688
3	34254	44.629722948592	23829
3	34264	44.643563035066	23970
3	34290	44.657403121693	24111
3	34300	44.671243208473	24252
3	34310	44.685083295405	24393
3	34320	44.69892338249	24534
3	34643	45.138209876259	24675
3	34653	45.142537396138	24816
3	34852	45.478705272347	24957
3	34862	45.492545016812	25098
3	35396	46.238225702651	25239
3	35406	46.242539102247	25380
3	35432	46.252065806572	25521
3	35442	46.265905910638	25662
3	35944	47.07862990386	25803
3	35954	47.092469534458	25944
3	36181	47.342541108961	26085
3	36362	47.628599474863	26226
3	36922	48.44254343432	26367
3	37089	48.728538095321	26508
3	37466	49.278508829167	26649
3	37679	49.542546100635	26790
3	38218	50.328619212174	26931
3	38228	50.342459348186	27072
3	38256	50.356299484244	27213
3	38273	50.370139620347	27354
3	38280	50.383979756495	27495
3	38290	50.397819892688	27636
3	38331	50.411660028925	27777
3	38341	50.425500165205	27918
3	38351	50.439340301528	28059
3	38384	50.457785049221	28200
3	38519	50.628300530403	28341
3	38853	51.178303908453	28482
3	39020	51.478411129103	28623
3	39560	52.278311307695	28764
3	39641	52.378392022889	28905
3	39651	52.392232168256	29046
3	39692	52.406072313995	29187
3	39702	52.419912460107	29328
3	39712	52.433752606591	29469
3	40307	53.378319630153	29610
3	40317	53.392159684734	29751
3	40358	53.405999739393	29892
3	40368	53.419839794132	30033
3	40378	53.433679848949	30174
3	40388	53.447519903845	30315
3	40430	53.47841795434	30456
3	40913	54.178335302773	30597
3	40923	54.192175162772	30738
3	40966	54.206015023209	30879
3	41154	54.478328962872	31020
3	41164	54.492169023996	31161
3	41676	55.278315230148	31302
3	41884	55.578339401796	31443
3	42251	56.128343958673	31584
3	42429	56.378300507961	31725
3	42996	57.22834534427	31866
3	43160	57.478290172152	32007
3	43724	58.328346758821	32148
3	43891	58.578281985503	32289
3	44276	59.128278626106	32430
3	44471	59.428348202781	32571
3	44895	60.028548863492	32712
3	44905	60.042388959302	32853
3	44932	60.070069151119	32994
3	44942	60.083909247126	33135
3	44952	60.097749343199	33276
3	44999	60.111589439338	33417
3	45009	60.125429535542	33558
3	45019	60.139269631811	33699
3	45047	60.153109728146	33840
3	45058	60.166949824547	33981
3	45068	60.180789921012	34122
3	45078	60.194630017542	34263
3	45121	60.208470114138	34404
3	45142	60.228273279455	34545
3	45687	61.078350424867	34686
3	45697	61.092190434171	34827
3	45744	61.106030443477	34968
3	45754	61.119870452786	35109
3	45764	61.133710462096	35250
3	45774	61.14755047141	35391
3	45803	61.161390480725	35532
3	45813	61.175230490044	35673
3	45823	61.189070499364	35814
3	45864	61.202910508687	35955
3	45874	61.216750518012	36096
3	45884	61.23059052734	36237
3	45894	61.24443053667	36378
3	45920	61.258270546002	36519
3	46173	61.632959683705	36660
3	46556	62.18314209759	36801
3	46566	62.196982202241	36942
3	46607	62.210822306939	37083
3	46617	62.224662411681	37224
3	46644	62.252342621301	37365
3	46764	62.42826792082	37506
3	46774	62.44210791576	37647
3	47374	63.282961616677	37788
3	47379	63.28315390447	37929
3	47390	63.296801626365	38070
3	47395	63.29699401213	38211
3	47440	63.310641636056	38352
3	47445	63.310834119819	38493
3	47456	63.32448164575	38634
3	47461	63.324674227537	38775
3	47471	63.338321655446	38916
3	47497	63.352161665144	39057
3	47507	63.366001674845	39198
3	47648	63.537948103171	39339
3	48258	64.382962938154	39480
3	48263	64.383165970897	39621
3	48274	64.396802948039	39762
3	48279	64.39700608016	39903
3	48321	64.410642957927	40044
3	48326	64.410846189432	40185
3	48336	64.424482967817	40326
3	48346	64.438322977709	40467
3	48702	64.9379685605	40608
3	48728	64.951808570485	40749
3	49037	65.478356691064	40890
3	49279	65.87827264	41031
3	49578	66.278645802049	41172
3	49780	66.528729611051	41313
3	49787	66.542569534581	41454
3	49817	66.55640945782	41595
3	49851	66.570249380769	41736
3	50268	67.128359173277	41877
3	50278	67.142199183666	42018
3	50304	67.156039194057	42159
3	50314	67.169879204451	42300
3	50324	67.183719214848	42441
3	50334	67.197559225247	42582
3	50377	67.211399235649	42723
3	51032	68.228360869542	42864
3	51188	68.47827264	43005
3	51198	68.49211264	43146
3	51239	68.50595264	43287
3	51775	69.32836259956	43428
3	52010	69.72827264	43569
3	52020	69.74211264	43710
3	52046	69.75595264	43851
3	52263	70.092541334949	43992
3	52411	70.27827264	44133
3	52903	70.988045274825	44274
3	52946	71.001885285955	44415
3	53283	71.538046178889	44556
3	53730	72.228456111844	44697
3	53885	72.47827264	44838
3	53895	72.49211264	44979
3	54484	73.328460201338	45120
3	54634	73.57827264	45261
3	55196	74.428371076418	45402
3	55356	74.678267960386	45543
3	55702	75.22826774158	45684
3	55910	75.528373006326	45825
3	56236	75.978551305661	45966
3	56246	75.992391177215	46107
3	56289	76.006231068729	46248
3	56300	76.020070985932	46389
3	56310	76.03391090316	46530
3	56320	76.047750820414	46671
3	56352	76.061590737693	46812
3	56367	76.075430654997	46953
3	56377	76.089270572327	47094
3	56426	76.116950407064	47235
3	56436	76.130790324472	47376
3	56446	76.144630241905	47517
3	56474	76.158470159364	47658
3	56484	76.172310076849	47799
3	56494	76.18614999436	47940
3	56750	76.528544442599	48081
3	56760	76.542384360799	48222
3	56786	76.556224279026	48363
3	57214	77.178373860823	48504
3	57224	77.192213860823	48645
3	57264	77.206053860823	48786
3	57274	77.219893860823	48927
3	57284	77.233733860823	49068
3	57294	77.247573860823	49209
3	57329	77.261413860823	49350
3	57344	77.275253860823	49491
3	57354	77.289093860823	49632
3	57394	77.302933860823	49773
3	57404	77.316773860823	49914
3	57414	77.330613860823	50055
3	57424	77.344453860823	50196
3	57450	77.358293860823	50337
3	57460	77.372133860823	50478
3	57470	77.385973860823	50619
3	57480	77.399813860823	50760
3	57520	77.413653860823	50901
3	57530	77.427493860823	51042
3	57580	77.478270507667	51183
3	57590	77.492110521689	51324
3	58111	78.278373860823	51465
3	58383	78.683109241142	51606
3	58393	78.696949164193	51747
3	58442	78.710789087277	51888
3	58462	78.724629010396	52029
3	58472	78.728750842095	52170
3	58499	78.756430842161	52311
3	58832	79.233105193127	52452
3	58842	79.246945117563	52593
3	59311	79.938053860823	52734
3	59337	79.951893860823	52875
3	59347	79.965733860823	53016
3	59357	79.979573860823	53157
3	59367	79.993413860823	53298
3	59409	80.007253860823	53439
3	59431	80.021093860823	53580
3	59441	80.034933860823	53721
3	59725	80.488053860823	53862
3	59910	80.778281328669	54003
3	59920	80.79212135967	54144
3	59960	80.805961390748	54285
3	60030	80.887900655907	54426
3	60431	81.433089768214	54567
3	60441	81.446929698571	54708
3	60467	81.460769628966	54849
3	60477	81.474609559399	54990
3	60487	81.488449489871	55131
3	60937	82.138053860823	55272
3	60963	82.151893860823	55413
3	60973	82.165733860823	55554
3	60983	82.179573860823	55695
3	60993	82.193413860823	55836
3	61035	82.207253860823	55977
3	61057	82.221093860823	56118
3	61067	82.234933860823	56259
3	61262	82.533356523128	56400
3	61538	82.978293373559	56541
3	61548	82.992133417575	56682
3	61604	83.028748930894	56823
3	61939	83.528297069818	56964
3	62347	84.178463020334	57105
3	62357	84.192302958469	57246
3	62397	84.206142896644	57387
3	62407	84.219982834859	57528
3	62417	84.233822773113	57669
3	62661	84.633271504848	57810
3	63149	85.378373860823	57951
3	63159	85.392213860823	58092
3	63201	85.406053860823	58233
3	63211	85.419893860823	58374
3	63221	85.433733860823	58515
3	63231	85.447573860823	58656
3	63257	85.461413860823	58797
3	63267	85.475253860823	58938
3	63274	85.489093860823	59079
3	63316	85.502933860823	59220
3	63572	85.828448570269	59361
3	63582	85.84228851307	59502
3	63957	86.378444003769	59643
3	64380	87.028373860823	59784
3	64390	87.042213860823	59925
3	64418	87.056053860823	60066
3	64428	87.069893860823	60207
3	64435	87.083733860823	60348
3	64638	87.378332324082	60489
3	64648	87.392172403273	60630
3	64690	87.4060124826	60771
3	64809	87.578373860823	60912
3	64819	87.592213860823	61053
3	65149	88.028431039449	61194
3	65159	88.042270988284	61335
3	65185	88.056110937157	61476
3	65195	88.069950886066	61617
3	65540	88.578426958298	61758
3	65908	89.128422994587	61899
3	66178	89.578361666508	62040
3	66188	89.59220176996	62181
3	66554	90.128368368559	62322
3	66715	90.328373860823	62463
3	66725	90.342213860823	62604
3	66753	90.356053860823	62745
3	66760	90.369893860823	62886
3	66770	90.383733860823	63027
3	66780	90.397573860823	63168
3	66818	90.411413860823	63309
3	66828	90.425253860823	63450
3	66838	90.439093860823	63591
3	67078	90.778416889775	63732
3	67088	90.792256889775	63873
3	67126	90.806096889775	64014
3	67136	90.819936889775	64155
3	67518	91.428373860823	64296
3	67528	91.442213860823	64437
3	67556	91.456053860823	64578
3	67566	91.469893860823	64719
3	67576	91.483733860823	64860

