version 2
run C-0-20190928-23:18:18-5092
attr configname C
attr datetime 20190928-23:18:18
attr experiment C
attr inifile SimV2.ini
attr iterationvars ""
attr iterationvarsf ""
attr measurement ""
attr network NetworkTormV2
attr processid 5092
attr repetition 0
attr replication #0
attr resultdir results
attr runnumber 0
attr seedset 0
param **.mobility.traceFile "\"paths/C.movements\""
param **.numNodes 4
param **.wirelessIfc.wirelessRange 40m
param **.bluetoothIfc.wirelessRange 40m
param **.application.usedRNG 1
param **.application.dataGenerationInterval 1s
param **.application.dataSizeInBytes 10
param **.application.ttl 999999s
param **application.destinationAddr "\"Wf:00:00:00:00:02\""
param **application.destinationBTAddr "\"Bt:00:00:00:00:02\""
param **application.nodesThatGen true
param **application.nodesGenMsg "\"0,1,3\""
param **application.startMultipleMsg false
param **application.numMultipleMsg 100
param **application.hopsListSize 50
param **.application.endGeneratingMsg 90s
param **.numNodes 2
param **.application.usedRNG 1
param **.application.dataGenerationInterval 1ms
param **.application.dataSizeInBytes 10
param **.application.ttl 999999s
param **application.destinationAddr "\"Wf:00:00:00:00:02\""
param **application.destinationBTAddr "\"Bt:00:00:00:00:02\""
param **application.nodesThatGen true
param **application.nodesGenMsg "\"0\""
param **application.startMultipleMsg true
param **application.numMultipleMsg 100
param **application.hopsListSize 50
param **.application.endGeneratingMsg 999999s
param **.routingLayer "\"RoutingLqeGw\""
param **.routing.maximumCacheSize 5000byte
param **.routing.maximumHopCount 25
param **.routing.useTTL false
param **.routing.waitBFsend 0.5
param **.routing.max_age 999999s
param **.routing.gateway_list "\"Wf:00:00:00:00:02;0|.\""
param **.routing.actual_gateway "\"Wf:00:00:00:00:02\""
param **.routing.gwCheckPeriod 5s
param **.neighboring.antiEntropyInterval 500ms
param **.neighboring.maximumRandomBackoffDuration 1s
param **.neighboring.delayPerDataMsg 0.1
param **neighboring.usedRNG 2
param **.neighboring.GWAddr "\"Wf:00:00:00:00:02\""
param **.neighboring.sendWifiFirst true
param **.neighboring.maxLengthGraph 20
param **.neighboring.max_age 999999s
param **.neighboring.max_absent_time 1s
param **.wirelessIfc.wirelessRange 15m
param **.wirelessIfc.neighbourScanInterval 50ms
param **.wirelessIfc.bandwidthBitRate 100000bps
param **.wirelessIfc.wirelessHeaderSize 32byte
param **.wirelessIfc.minSSI -90
param **.wirelessIfc.limitQueueTime 400ms
param **.wirelessIfc.my_limit_rate 0bps
param **.bluetoothIfc.wirelessRange 15m
param **.bluetoothIfc.neighbourScanInterval 100ms
param **.bluetoothIfc.bandwidthBitRate 100000bps
param **.bluetoothIfc.wirelessHeaderSize 16byte
param **.bluetoothIfc.minSSI -90
param **.mobilityType "\"BonnMotionMobility\""
param **.mobility.traceFile "\"paths/Moves2.movements\""
param **.mobility.is3D false
param **.mobility.nodeId -1

vector 0 NetworkTormV2 neighbourhoodSize:vector ETV
attr source neighbourhoodSize
vector 1 NetworkTormV2 deliveryRatio:vector ETV
attr source sum(totalDataBytesReceived)/sum(totalDataBytesReceivableByAllNodes)
vector 2 NetworkTormV2 dataBytesReceivedSum:vector ETV
attr source sum(dataBytesReceived)
vector 3 NetworkTormV2 totalBytesReceivedSum:vector ETV
attr source sum(totalBytesReceived)
0	13	0.05	3
0	14	0.05	3
0	15	0.05	3
0	16	0.05	3
0	30	0.1	3
0	32	0.1	3
0	33	0.1	3
0	35	0.1	3
0	40	0.1	3
0	41	0.1	3
0	42	0.1	3
0	43	0.1	3
0	67	0.15	3
0	68	0.15	3
0	69	0.15	3
0	70	0.15	3
0	83	0.2	3
0	84	0.2	3
0	85	0.2	3
0	86	0.2	3
0	91	0.2	3
0	92	0.2	3
0	93	0.2	3
0	94	0.2	3
0	115	0.25	3
0	116	0.25	3
0	117	0.25	3
0	118	0.25	3
0	131	0.3	3
0	132	0.3	3
0	133	0.3	3
0	134	0.3	3
0	139	0.3	3
0	140	0.3	3
0	141	0.3	3
0	142	0.3	3
0	163	0.35	3
0	164	0.35	3
0	165	0.35	3
0	166	0.35	3
0	179	0.4	3
0	180	0.4	3
0	181	0.4	3
0	182	0.4	3
0	187	0.4	3
0	188	0.4	3
0	189	0.4	3
0	190	0.4	3
0	211	0.45	3
0	212	0.45	3
0	213	0.45	3
0	214	0.45	3
0	227	0.5	3
0	228	0.5	3
0	229	0.5	3
0	230	0.5	3
0	235	0.5	3
0	236	0.5	3
0	237	0.5	3
0	238	0.5	3
0	259	0.55	3
0	260	0.55	3
0	261	0.55	3
0	262	0.55	3
0	275	0.6	3
0	276	0.6	3
0	277	0.6	3
0	278	0.6	3
0	283	0.6	3
0	284	0.6	3
0	285	0.6	3
0	286	0.6	3
0	307	0.65	3
0	308	0.65	3
0	309	0.65	3
0	310	0.65	3
0	323	0.7	3
0	324	0.7	3
0	325	0.7	3
0	326	0.7	3
0	331	0.7	3
0	332	0.7	3
0	333	0.7	3
0	334	0.7	3
0	355	0.75	3
0	356	0.75	3
0	357	0.75	3
0	358	0.75	3
0	371	0.8	3
0	372	0.8	3
0	373	0.8	3
0	374	0.8	3
0	379	0.8	3
0	380	0.8	3
0	381	0.8	3
0	382	0.8	3
0	403	0.85	3
0	404	0.85	3
0	405	0.85	3
0	406	0.85	3
0	419	0.9	3
0	420	0.9	3
0	421	0.9	3
0	422	0.9	3
0	427	0.9	3
0	428	0.9	3
0	429	0.9	3
0	430	0.9	3
0	451	0.95	3
0	452	0.95	3
0	453	0.95	3
0	454	0.95	3
0	467	1	3
0	468	1	3
0	469	1	3
0	470	1	3
0	475	1	3
0	476	1	3
0	477	1	3
0	478	1	3
0	499	1.05	3
0	500	1.05	3
0	501	1.05	3
0	502	1.05	3
0	518	1.1	3
0	519	1.1	3
0	520	1.1	3
0	521	1.1	3
0	526	1.1	3
0	527	1.1	3
0	528	1.1	3
0	529	1.1	3
0	733	1.15	3
0	734	1.15	3
0	735	1.15	3
0	736	1.15	3
0	809	1.2	3
0	810	1.2	3
0	811	1.2	3
0	812	1.2	3
0	817	1.2	3
0	818	1.2	3
0	819	1.2	3
0	820	1.2	3
0	841	1.25	3
0	842	1.25	3
0	843	1.25	3
0	844	1.25	3
0	857	1.3	3
0	858	1.3	3
0	859	1.3	3
0	860	1.3	3
0	865	1.3	3
0	866	1.3	3
0	867	1.3	3
0	868	1.3	3
0	889	1.35	3
0	890	1.35	3
0	891	1.35	3
0	892	1.35	3
0	905	1.4	3
0	906	1.4	3
0	907	1.4	3
0	908	1.4	3
0	913	1.4	3
0	914	1.4	3
0	915	1.4	3
0	916	1.4	3
0	937	1.45	3
0	938	1.45	3
0	939	1.45	3
0	940	1.45	3
0	953	1.5	3
0	954	1.5	3
0	955	1.5	3
0	956	1.5	3
0	961	1.5	3
0	962	1.5	3
0	963	1.5	3
0	964	1.5	3
0	985	1.55	3
0	986	1.55	3
0	987	1.55	3
0	988	1.55	3
0	1001	1.6	3
0	1002	1.6	3
0	1003	1.6	3
0	1004	1.6	3
0	1009	1.6	3
0	1010	1.6	3
0	1011	1.6	3
0	1012	1.6	3
0	1033	1.65	3
0	1034	1.65	3
0	1035	1.65	3
0	1036	1.65	3
0	1217	1.7	3
0	1218	1.7	3
0	1219	1.7	3
0	1220	1.7	3
0	1225	1.7	3
0	1226	1.7	3
0	1227	1.7	3
0	1228	1.7	3
0	1249	1.75	3
0	1250	1.75	3
0	1251	1.75	3
0	1252	1.75	3
0	1265	1.8	3
0	1266	1.8	3
0	1267	1.8	3
0	1268	1.8	3
0	1273	1.8	3
0	1274	1.8	3
0	1275	1.8	3
0	1276	1.8	3
0	1297	1.85	3
0	1298	1.85	3
0	1299	1.85	3
0	1300	1.85	3
0	1313	1.9	3
0	1314	1.9	3
0	1315	1.9	3
0	1316	1.9	3
0	1321	1.9	3
0	1322	1.9	3
0	1323	1.9	3
0	1324	1.9	3
0	1345	1.95	3
0	1346	1.95	3
0	1347	1.95	3
0	1348	1.95	3
0	1361	2	3
0	1362	2	3
0	1363	2	3
0	1364	2	3
0	1369	2	3
0	1370	2	3
0	1371	2	3
0	1372	2	3
0	1393	2.05	3
0	1394	2.05	3
0	1395	2.05	3
0	1396	2.05	3
0	1412	2.1	3
0	1413	2.1	3
0	1414	2.1	3
0	1415	2.1	3
0	1420	2.1	3
0	1421	2.1	3
0	1422	2.1	3
0	1423	2.1	3
0	1447	2.15	3
0	1448	2.15	3
0	1449	2.15	3
0	1450	2.15	3
0	1463	2.2	3
0	1464	2.2	3
0	1465	2.2	3
0	1466	2.2	3
0	1471	2.2	3
0	1472	2.2	3
0	1473	2.2	3
0	1474	2.2	3
0	1669	2.25	3
0	1670	2.25	3
0	1671	2.25	3
0	1672	2.25	3
0	1715	2.3	3
0	1716	2.3	3
0	1717	2.3	3
0	1718	2.3	3
0	1723	2.3	3
0	1724	2.3	3
0	1725	2.3	3
0	1726	2.3	3
0	1747	2.35	3
0	1748	2.35	3
0	1749	2.35	3
0	1750	2.35	3
0	1763	2.4	3
0	1764	2.4	3
0	1765	2.4	3
0	1766	2.4	3
0	1771	2.4	3
0	1772	2.4	3
0	1773	2.4	3
0	1774	2.4	3
0	1795	2.45	3
0	1796	2.45	3
0	1797	2.45	3
0	1798	2.45	3
0	1811	2.5	3
0	1812	2.5	3
0	1813	2.5	3
0	1814	2.5	3
0	1819	2.5	3
0	1820	2.5	3
0	1821	2.5	3
0	1822	2.5	3
0	1843	2.55	3
0	1844	2.55	3
0	1845	2.55	3
0	1846	2.55	3
0	1859	2.6	3
0	1860	2.6	3
0	1861	2.6	3
0	1862	2.6	3
0	1867	2.6	3
0	1868	2.6	3
0	1869	2.6	3
0	1870	2.6	3
0	1891	2.65	3
0	1892	2.65	3
0	1893	2.65	3
0	1894	2.65	3
0	1907	2.7	3
0	1908	2.7	3
0	1909	2.7	3
0	1910	2.7	3
0	1915	2.7	3
0	1916	2.7	3
0	1917	2.7	3
0	1918	2.7	3
0	1939	2.75	3
0	1940	2.75	3
0	1941	2.75	3
0	1942	2.75	3
0	2123	2.8	3
0	2124	2.8	3
0	2125	2.8	3
0	2126	2.8	3
0	2131	2.8	3
0	2132	2.8	3
0	2133	2.8	3
0	2134	2.8	3
0	2155	2.85	3
0	2156	2.85	3
0	2157	2.85	3
0	2158	2.85	3
0	2171	2.9	3
0	2172	2.9	3
0	2173	2.9	3
0	2174	2.9	3
0	2179	2.9	3
0	2180	2.9	3
0	2181	2.9	3
0	2182	2.9	3
0	2203	2.95	3
0	2204	2.95	3
0	2205	2.95	3
0	2206	2.95	3
0	2219	3	3
0	2220	3	3
0	2221	3	3
0	2222	3	3
0	2227	3	3
0	2228	3	3
0	2229	3	3
0	2230	3	3
0	2251	3.05	3
0	2252	3.05	3
0	2253	3.05	3
0	2254	3.05	3
0	2270	3.1	3
0	2271	3.1	3
0	2272	3.1	3
0	2273	3.1	3
0	2278	3.1	3
0	2279	3.1	3
0	2280	3.1	3
0	2281	3.1	3
0	2305	3.15	3
0	2306	3.15	3
0	2307	3.15	3
0	2308	3.15	3
0	2321	3.2	3
0	2322	3.2	3
0	2323	3.2	3
0	2324	3.2	3
0	2329	3.2	3
0	2330	3.2	3
0	2331	3.2	3
0	2332	3.2	3
0	2353	3.25	3
0	2354	3.25	3
0	2355	3.25	3
0	2356	3.25	3
0	2369	3.3	3
0	2370	3.3	3
0	2371	3.3	3
0	2372	3.3	3
0	2377	3.3	3
0	2378	3.3	3
0	2379	3.3	3
0	2380	3.3	3
0	2575	3.35	3
0	2576	3.35	3
0	2577	3.35	3
0	2578	3.35	3
0	2621	3.4	3
0	2622	3.4	3
0	2623	3.4	3
0	2624	3.4	3
0	2629	3.4	3
0	2630	3.4	3
0	2631	3.4	3
0	2632	3.4	3
0	2653	3.45	3
0	2654	3.45	3
0	2655	3.45	3
0	2656	3.45	3
0	2669	3.5	3
0	2670	3.5	3
0	2671	3.5	3
0	2672	3.5	3
0	2677	3.5	3
0	2678	3.5	3
0	2679	3.5	3
0	2680	3.5	3
0	2701	3.55	3
0	2702	3.55	3
0	2703	3.55	3
0	2704	3.55	3
0	2717	3.6	3
0	2718	3.6	3
0	2719	3.6	3
0	2720	3.6	3
0	2725	3.6	3
0	2726	3.6	3
0	2727	3.6	3
0	2728	3.6	3
0	2749	3.65	3
0	2750	3.65	3
0	2751	3.65	3
0	2752	3.65	3
0	2765	3.7	3
0	2766	3.7	3
0	2767	3.7	3
0	2768	3.7	3
0	2773	3.7	3
0	2774	3.7	3
0	2775	3.7	3
0	2776	3.7	3
0	2797	3.75	3
0	2798	3.75	3
0	2799	3.75	3
0	2800	3.75	3
0	2813	3.8	3
0	2814	3.8	3
0	2815	3.8	3
0	2816	3.8	3
0	2821	3.8	3
0	2822	3.8	3
0	2823	3.8	3
0	2824	3.8	3
0	2845	3.85	3
0	2846	3.85	3
0	2847	3.85	3
0	2848	3.85	3
0	3029	3.9	3
0	3030	3.9	3
0	3031	3.9	3
0	3032	3.9	3
0	3037	3.9	3
0	3038	3.9	3
0	3039	3.9	3
0	3040	3.9	3
0	3061	3.95	3
0	3062	3.95	3
0	3063	3.95	3
0	3064	3.95	3
0	3077	4	3
0	3078	4	3
0	3079	4	3
0	3080	4	3
0	3085	4	3
0	3086	4	3
0	3087	4	3
0	3088	4	3
0	3109	4.05	3
0	3110	4.05	3
0	3111	4.05	3
0	3112	4.05	3
0	3128	4.1	3
0	3129	4.1	3
0	3130	4.1	3
0	3131	4.1	3
0	3136	4.1	3
0	3137	4.1	3
0	3138	4.1	3
0	3139	4.1	3
0	3163	4.15	3
0	3164	4.15	3
0	3165	4.15	3
0	3166	4.15	3
0	3179	4.2	3
0	3180	4.2	3
0	3181	4.2	3
0	3182	4.2	3
0	3187	4.2	3
0	3188	4.2	3
0	3189	4.2	3
0	3190	4.2	3
0	3211	4.25	3
0	3212	4.25	3
0	3213	4.25	3
0	3214	4.25	3
0	3227	4.3	3
0	3228	4.3	3
0	3229	4.3	3
0	3230	4.3	3
0	3235	4.3	3
0	3236	4.3	3
0	3237	4.3	3
0	3238	4.3	3
0	3259	4.35	3
0	3260	4.35	3
0	3261	4.35	3
0	3262	4.35	3
0	3275	4.4	3
0	3276	4.4	3
0	3277	4.4	3
0	3278	4.4	3
0	3283	4.4	3
0	3284	4.4	3
0	3285	4.4	3
0	3286	4.4	3
0	3481	4.45	3
0	3482	4.45	3
0	3483	4.45	3
0	3484	4.45	3
0	3527	4.5	3
0	3528	4.5	3
0	3529	4.5	3
0	3530	4.5	3
0	3535	4.5	3
0	3536	4.5	3
0	3537	4.5	3
0	3538	4.5	3
0	3559	4.55	3
0	3560	4.55	3
0	3561	4.55	3
0	3562	4.55	3
0	3575	4.6	3
0	3576	4.6	3
0	3577	4.6	3
0	3578	4.6	3
0	3583	4.6	3
0	3584	4.6	3
0	3585	4.6	3
0	3586	4.6	3
0	3607	4.65	3
0	3608	4.65	3
0	3609	4.65	3
0	3610	4.65	3
0	3623	4.7	3
0	3624	4.7	3
0	3625	4.7	3
0	3626	4.7	3
0	3631	4.7	3
0	3632	4.7	3
0	3633	4.7	3
0	3634	4.7	3
0	3655	4.75	3
0	3656	4.75	3
0	3657	4.75	3
0	3658	4.75	3
0	3671	4.8	3
0	3672	4.8	3
0	3673	4.8	3
0	3674	4.8	3
0	3679	4.8	3
0	3680	4.8	3
0	3681	4.8	3
0	3682	4.8	3
0	3703	4.85	3
0	3704	4.85	3
0	3705	4.85	3
0	3706	4.85	3
0	3719	4.9	3
0	3720	4.9	3
0	3721	4.9	3
0	3722	4.9	3
0	3727	4.9	3
0	3728	4.9	3
0	3729	4.9	3
0	3730	4.9	3
0	3751	4.95	3
0	3752	4.95	3
0	3753	4.95	3
0	3754	4.95	3
0	3939	5	3
0	3940	5	3
0	3941	5	3
0	3942	5	3
0	3947	5	3
0	3948	5	3
0	3949	5	3
0	3950	5	3
0	3971	5.05	3
0	3972	5.05	3
0	3973	5.05	3
0	3974	5.05	3
0	3990	5.1	3
0	3991	5.1	3
0	3992	5.1	3
0	3993	5.1	3
0	3998	5.1	3
0	3999	5.1	3
0	4000	5.1	3
0	4001	5.1	3
0	4025	5.15	3
0	4026	5.15	3
0	4027	5.15	3
0	4028	5.15	3
0	4041	5.2	3
0	4042	5.2	3
0	4043	5.2	3
0	4044	5.2	3
0	4049	5.2	3
0	4050	5.2	3
0	4051	5.2	3
0	4052	5.2	3
0	4073	5.25	3
0	4074	5.25	3
0	4075	5.25	3
0	4076	5.25	3
0	4089	5.3	3
0	4090	5.3	3
0	4091	5.3	3
0	4092	5.3	3
0	4097	5.3	3
0	4098	5.3	3
0	4099	5.3	3
0	4100	5.3	3
0	4121	5.35	3
0	4122	5.35	3
0	4123	5.35	3
0	4124	5.35	3
0	4137	5.4	3
0	4138	5.4	3
0	4139	5.4	3
0	4140	5.4	3
0	4145	5.4	3
0	4146	5.4	3
0	4147	5.4	3
0	4148	5.4	3
0	4169	5.45	3
0	4170	5.45	3
0	4171	5.45	3
0	4172	5.45	3
0	4185	5.5	3
0	4186	5.5	3
0	4187	5.5	3
0	4188	5.5	3
0	4193	5.5	3
0	4194	5.5	3
0	4195	5.5	3
0	4196	5.5	3
0	4391	5.55	3
0	4392	5.55	3
0	4393	5.55	3
0	4394	5.55	3
0	4437	5.6	3
0	4438	5.6	3
0	4439	5.6	3
0	4440	5.6	3
0	4445	5.6	3
0	4446	5.6	3
0	4447	5.6	3
0	4448	5.6	3
0	4469	5.65	3
0	4470	5.65	3
0	4471	5.65	3
0	4472	5.65	3
0	4485	5.7	3
0	4486	5.7	3
0	4487	5.7	3
0	4488	5.7	3
0	4493	5.7	3
0	4494	5.7	3
0	4495	5.7	3
0	4496	5.7	3
0	4517	5.75	3
0	4518	5.75	3
0	4519	5.75	3
0	4520	5.75	3
0	4533	5.8	3
0	4534	5.8	3
0	4535	5.8	3
0	4536	5.8	3
0	4541	5.8	3
0	4542	5.8	3
0	4543	5.8	3
0	4544	5.8	3
0	4565	5.85	3
0	4566	5.85	3
0	4567	5.85	3
0	4568	5.85	3
0	4581	5.9	3
0	4582	5.9	3
0	4583	5.9	3
0	4584	5.9	3
0	4589	5.9	3
0	4590	5.9	3
0	4591	5.9	3
0	4592	5.9	3
0	4613	5.95	3
0	4614	5.95	3
0	4615	5.95	3
0	4616	5.95	3
0	4629	6	3
0	4630	6	3
0	4631	6	3
0	4632	6	3
0	4637	6	3
0	4638	6	3
0	4639	6	3
0	4640	6	3
0	4661	6.05	3
0	4662	6.05	3
0	4663	6.05	3
0	4664	6.05	3
0	4848	6.1	3
0	4849	6.1	3
0	4850	6.1	3
0	4851	6.1	3
0	4856	6.1	3
0	4857	6.1	3
0	4858	6.1	3
0	4859	6.1	3
0	4883	6.15	3
0	4884	6.15	3
0	4885	6.15	3
0	4886	6.15	3
0	4899	6.2	3
0	4900	6.2	3
0	4901	6.2	3
0	4902	6.2	3
0	4907	6.2	3
0	4908	6.2	3
0	4909	6.2	3
0	4910	6.2	3
0	4931	6.25	3
0	4932	6.25	3
0	4933	6.25	3
0	4934	6.25	3
0	4947	6.3	3
0	4948	6.3	3
0	4949	6.3	3
0	4950	6.3	3
0	4955	6.3	3
0	4956	6.3	3
0	4957	6.3	3
0	4958	6.3	3
0	4979	6.35	3
0	4980	6.35	3
0	4981	6.35	3
0	4982	6.35	3
0	4995	6.4	3
0	4996	6.4	3
0	4997	6.4	3
0	4998	6.4	3
0	5003	6.4	3
0	5004	6.4	3
0	5005	6.4	3
0	5006	6.4	3
0	5027	6.45	3
0	5028	6.45	3
0	5029	6.45	3
0	5030	6.45	3
0	5043	6.5	3
0	5044	6.5	3
0	5045	6.5	3
0	5046	6.5	3
0	5051	6.5	3
0	5052	6.5	3
0	5053	6.5	3
0	5054	6.5	3
0	5075	6.55	3
0	5076	6.55	3
0	5077	6.55	3
0	5078	6.55	3
0	5091	6.6	3
0	5092	6.6	3
0	5093	6.6	3
0	5094	6.6	3
0	5099	6.6	3
0	5100	6.6	3
0	5101	6.6	3
0	5102	6.6	3
0	5297	6.65	3
0	5298	6.65	3
0	5299	6.65	3
0	5300	6.65	3
0	5343	6.7	3
0	5344	6.7	3
0	5345	6.7	3
0	5346	6.7	3
0	5351	6.7	3
0	5352	6.7	3
0	5353	6.7	3
0	5354	6.7	3
0	5375	6.75	3
0	5376	6.75	3
0	5377	6.75	3
0	5378	6.75	3
0	5391	6.8	3
0	5392	6.8	3
0	5393	6.8	3
0	5394	6.8	3
0	5399	6.8	3
0	5400	6.8	3
0	5401	6.8	3
0	5402	6.8	3
0	5423	6.85	3
0	5424	6.85	3
0	5425	6.85	3
0	5426	6.85	3
0	5439	6.9	3
0	5440	6.9	3
0	5441	6.9	3
0	5442	6.9	3
0	5447	6.9	3
0	5448	6.9	3
0	5449	6.9	3
0	5450	6.9	3
0	5471	6.95	3
0	5472	6.95	3
0	5473	6.95	3
0	5474	6.95	3
0	5487	7	3
0	5488	7	3
0	5489	7	3
0	5490	7	3
0	5495	7	3
0	5496	7	3
0	5497	7	3
0	5498	7	3
0	5519	7.05	3
0	5520	7.05	3
0	5521	7.05	3
0	5522	7.05	3
0	5538	7.1	3
0	5539	7.1	3
0	5540	7.1	3
0	5541	7.1	3
0	5546	7.1	3
0	5547	7.1	3
0	5548	7.1	3
0	5549	7.1	3
0	5573	7.15	3
0	5574	7.15	3
0	5575	7.15	3
0	5576	7.15	3
0	5763	7.2	3
0	5764	7.2	3
0	5765	7.2	3
0	5766	7.2	3
0	5771	7.2	3
0	5772	7.2	3
0	5773	7.2	3
0	5774	7.2	3
0	5825	7.25	3
0	5826	7.25	3
0	5827	7.25	3
0	5828	7.25	3
0	5841	7.3	3
0	5842	7.3	3
0	5843	7.3	3
0	5844	7.3	3
0	5849	7.3	3
0	5850	7.3	3
0	5851	7.3	3
0	5852	7.3	3
0	5873	7.35	3
0	5874	7.35	3
0	5875	7.35	3
0	5876	7.35	3
0	5889	7.4	3
0	5890	7.4	3
0	5891	7.4	3
0	5892	7.4	3
0	5897	7.4	3
0	5898	7.4	3
0	5899	7.4	3
0	5900	7.4	3
0	5921	7.45	3
0	5922	7.45	3
0	5923	7.45	3
0	5924	7.45	3
0	5937	7.5	3
0	5938	7.5	3
0	5939	7.5	3
0	5940	7.5	3
0	5945	7.5	3
0	5946	7.5	3
0	5947	7.5	3
0	5948	7.5	3
0	5969	7.55	3
0	5970	7.55	3
0	5971	7.55	3
0	5972	7.55	3
0	5985	7.6	3
0	5986	7.6	3
0	5987	7.6	3
0	5988	7.6	3
0	5993	7.6	3
0	5994	7.6	3
0	5995	7.6	3
0	5996	7.6	3
0	6017	7.65	3
0	6018	7.65	3
0	6019	7.65	3
0	6020	7.65	3
0	6033	7.7	3
0	6034	7.7	3
0	6035	7.7	3
0	6036	7.7	3
0	6041	7.7	3
0	6042	7.7	3
0	6043	7.7	3
0	6044	7.7	3
0	6233	7.75	3
0	6234	7.75	3
0	6235	7.75	3
0	6236	7.75	3
0	6249	7.8	3
0	6250	7.8	3
0	6251	7.8	3
0	6252	7.8	3
0	6257	7.8	3
0	6258	7.8	3
0	6259	7.8	3
0	6260	7.8	3
0	6281	7.85	3
0	6282	7.85	3
0	6283	7.85	3
0	6284	7.85	3
0	6297	7.9	3
0	6298	7.9	3
0	6299	7.9	3
0	6300	7.9	3
0	6305	7.9	3
0	6306	7.9	3
0	6307	7.9	3
0	6308	7.9	3
0	6329	7.95	3
0	6330	7.95	3
0	6331	7.95	3
0	6332	7.95	3
0	6345	8	3
0	6346	8	3
0	6347	8	3
0	6348	8	3
0	6353	8	3
0	6354	8	3
0	6355	8	3
0	6356	8	3
0	6377	8.05	3
0	6378	8.05	3
0	6379	8.05	3
0	6380	8.05	3
0	6396	8.1	3
0	6397	8.1	3
0	6398	8.1	3
0	6399	8.1	3
0	6404	8.1	3
0	6405	8.1	3
0	6406	8.1	3
0	6407	8.1	3
0	6431	8.15	3
0	6432	8.15	3
0	6433	8.15	3
0	6434	8.15	3
0	6447	8.2	3
0	6448	8.2	3
0	6449	8.2	3
0	6450	8.2	3
0	6455	8.2	3
0	6456	8.2	3
0	6457	8.2	3
0	6458	8.2	3
0	6479	8.25	3
0	6480	8.25	3
0	6481	8.25	3
0	6482	8.25	3
0	6669	8.3	3
0	6670	8.3	3
0	6671	8.3	3
0	6672	8.3	3
0	6677	8.3	3
0	6678	8.3	3
0	6679	8.3	3
0	6680	8.3	3
0	6731	8.35	3
0	6732	8.35	3
0	6733	8.35	3
0	6734	8.35	3
0	6747	8.4	3
0	6748	8.4	3
0	6749	8.4	3
0	6750	8.4	3
0	6755	8.4	3
0	6756	8.4	3
0	6757	8.4	3
0	6758	8.4	3
0	6779	8.45	3
0	6780	8.45	3
0	6781	8.45	3
0	6782	8.45	3
0	6795	8.5	3
0	6796	8.5	3
0	6797	8.5	3
0	6798	8.5	3
0	6803	8.5	3
0	6804	8.5	3
0	6805	8.5	3
0	6806	8.5	3
0	6827	8.55	3
0	6828	8.55	3
0	6829	8.55	3
0	6830	8.55	3
0	6843	8.6	3
0	6844	8.6	3
0	6845	8.6	3
0	6846	8.6	3
0	6851	8.6	3
0	6852	8.6	3
0	6853	8.6	3
0	6854	8.6	3
0	6875	8.65	3
0	6876	8.65	3
0	6877	8.65	3
0	6878	8.65	3
0	6891	8.7	3
0	6892	8.7	3
0	6893	8.7	3
0	6894	8.7	3
0	6899	8.7	3
0	6900	8.7	3
0	6901	8.7	3
0	6902	8.7	3
0	6923	8.75	3
0	6924	8.75	3
0	6925	8.75	3
0	6926	8.75	3
0	6939	8.8	3
0	6940	8.8	3
0	6941	8.8	3
0	6942	8.8	3
0	6947	8.8	3
0	6948	8.8	3
0	6949	8.8	3
0	6950	8.8	3
0	7139	8.85	3
0	7140	8.85	3
0	7141	8.85	3
0	7142	8.85	3
0	7155	8.9	3
0	7156	8.9	3
0	7157	8.9	3
0	7158	8.9	3
0	7163	8.9	3
0	7164	8.9	3
0	7165	8.9	3
0	7166	8.9	3
0	7187	8.95	3
0	7188	8.95	3
0	7189	8.95	3
0	7190	8.95	3
0	7203	9	3
0	7204	9	3
0	7205	9	3
0	7206	9	3
0	7211	9	3
0	7212	9	3
0	7213	9	3
0	7214	9	3
0	7235	9.05	3
0	7236	9.05	3
0	7237	9.05	3
0	7238	9.05	3
0	7254	9.1	3
0	7255	9.1	3
0	7256	9.1	3
0	7257	9.1	3
0	7262	9.1	3
0	7263	9.1	3
0	7264	9.1	3
0	7265	9.1	3
0	7289	9.15	3
0	7290	9.15	3
0	7291	9.15	3
0	7292	9.15	3
0	7305	9.2	3
0	7306	9.2	3
0	7307	9.2	3
0	7308	9.2	3
0	7313	9.2	3
0	7314	9.2	3
0	7315	9.2	3
0	7316	9.2	3
0	7337	9.25	3
0	7338	9.25	3
0	7339	9.25	3
0	7340	9.25	3
0	7353	9.3	3
0	7354	9.3	3
0	7355	9.3	3
0	7356	9.3	3
0	7361	9.3	3
0	7362	9.3	3
0	7363	9.3	3
0	7364	9.3	3
0	7385	9.35	3
0	7386	9.35	3
0	7387	9.35	3
0	7388	9.35	3
0	7575	9.4	3
0	7576	9.4	3
0	7577	9.4	3
0	7578	9.4	3
0	7583	9.4	3
0	7584	9.4	3
0	7585	9.4	3
0	7586	9.4	3
0	7637	9.45	3
0	7638	9.45	3
0	7639	9.45	3
0	7640	9.45	3
0	7653	9.5	3
0	7654	9.5	3
0	7655	9.5	3
0	7656	9.5	3
0	7661	9.5	3
0	7662	9.5	3
0	7663	9.5	3
0	7664	9.5	3
0	7685	9.55	3
0	7686	9.55	3
0	7687	9.55	3
0	7688	9.55	3
0	7701	9.6	3
0	7702	9.6	3
0	7703	9.6	3
0	7704	9.6	3
0	7709	9.6	3
0	7710	9.6	3
0	7711	9.6	3
0	7712	9.6	3
0	7733	9.65	3
0	7734	9.65	3
0	7735	9.65	3
0	7736	9.65	3
0	7749	9.7	3
0	7750	9.7	3
0	7751	9.7	3
0	7752	9.7	3
0	7757	9.7	3
0	7758	9.7	3
0	7759	9.7	3
0	7760	9.7	3
0	7781	9.75	3
0	7782	9.75	3
0	7783	9.75	3
0	7784	9.75	3
0	7797	9.8	3
0	7798	9.8	3
0	7799	9.8	3
0	7800	9.8	3
0	7805	9.8	3
0	7806	9.8	3
0	7807	9.8	3
0	7808	9.8	3
0	7829	9.85	3
0	7830	9.85	3
0	7831	9.85	3
0	7832	9.85	3
0	7845	9.9	3
0	7846	9.9	3
0	7847	9.9	3
0	7848	9.9	3
0	7853	9.9	3
0	7854	9.9	3
0	7855	9.9	3
0	7856	9.9	3
0	8045	9.95	3
0	8046	9.95	3
0	8047	9.95	3
0	8048	9.95	3
0	8065	10	3
0	8066	10	3
0	8067	10	3
0	8068	10	3
0	8073	10	3
0	8074	10	3
0	8075	10	3
0	8076	10	3
0	8097	10.05	3
0	8098	10.05	3
0	8099	10.05	3
0	8100	10.05	3
0	8116	10.1	3
0	8117	10.1	3
0	8118	10.1	3
0	8119	10.1	3
0	8124	10.1	3
0	8125	10.1	3
0	8126	10.1	3
0	8127	10.1	3
0	8151	10.15	3
0	8152	10.15	3
0	8153	10.15	3
0	8154	10.15	3
0	8167	10.2	3
0	8168	10.2	3
0	8169	10.2	3
0	8170	10.2	3
0	8175	10.2	3
0	8176	10.2	3
0	8177	10.2	3
0	8178	10.2	3
0	8199	10.25	3
0	8200	10.25	3
0	8201	10.25	3
0	8202	10.25	3
0	8215	10.3	3
0	8216	10.3	3
0	8217	10.3	3
0	8218	10.3	3
0	8223	10.3	3
0	8224	10.3	3
0	8225	10.3	3
0	8226	10.3	3
0	8247	10.35	3
0	8248	10.35	3
0	8249	10.35	3
0	8250	10.35	3
0	8263	10.4	3
0	8264	10.4	3
0	8265	10.4	3
0	8266	10.4	3
0	8271	10.4	3
0	8272	10.4	3
0	8273	10.4	3
0	8274	10.4	3
0	8295	10.45	3
0	8296	10.45	3
0	8297	10.45	3
0	8298	10.45	3
0	8485	10.5	3
0	8486	10.5	3
0	8487	10.5	3
0	8488	10.5	3
0	8493	10.5	3
0	8494	10.5	3
0	8495	10.5	3
0	8496	10.5	3
0	8547	10.55	3
0	8548	10.55	3
0	8549	10.55	3
0	8550	10.55	3
0	8563	10.6	3
0	8564	10.6	3
0	8565	10.6	3
0	8566	10.6	3
0	8571	10.6	3
0	8572	10.6	3
0	8573	10.6	3
0	8574	10.6	3
0	8595	10.65	3
0	8596	10.65	3
0	8597	10.65	3
0	8598	10.65	3
0	8611	10.7	3
0	8612	10.7	3
0	8613	10.7	3
0	8614	10.7	3
0	8619	10.7	3
0	8620	10.7	3
0	8621	10.7	3
0	8622	10.7	3
0	8643	10.75	3
0	8644	10.75	3
0	8645	10.75	3
0	8646	10.75	3
0	8659	10.8	3
0	8660	10.8	3
0	8661	10.8	3
0	8662	10.8	3
0	8667	10.8	3
0	8668	10.8	3
0	8669	10.8	3
0	8670	10.8	3
0	8691	10.85	3
0	8692	10.85	3
0	8693	10.85	3
0	8694	10.85	3
0	8707	10.9	3
0	8708	10.9	3
0	8709	10.9	3
0	8710	10.9	3
0	8715	10.9	3
0	8716	10.9	3
0	8717	10.9	3
0	8718	10.9	3
0	8739	10.95	3
0	8740	10.95	3
0	8741	10.95	3
0	8742	10.95	3
0	8755	11	3
0	8756	11	3
0	8757	11	3
0	8758	11	3
0	8763	11	3
0	8764	11	3
0	8765	11	3
0	8766	11	3
0	8955	11.05	3
0	8956	11.05	3
0	8957	11.05	3
0	8958	11.05	3
0	8974	11.1	3
0	8975	11.1	3
0	8976	11.1	3
0	8977	11.1	3
0	8982	11.1	3
0	8983	11.1	3
0	8984	11.1	3
0	8985	11.1	3
0	9009	11.15	3
0	9010	11.15	3
0	9011	11.15	3
0	9012	11.15	3
0	9025	11.2	3
0	9026	11.2	3
0	9027	11.2	3
0	9028	11.2	3
0	9033	11.2	3
0	9034	11.2	3
0	9035	11.2	3
0	9036	11.2	3
0	9057	11.25	3
0	9058	11.25	3
0	9059	11.25	3
0	9060	11.25	3
0	9073	11.3	3
0	9074	11.3	3
0	9075	11.3	3
0	9076	11.3	3
0	9081	11.3	3
0	9082	11.3	3
0	9083	11.3	3
0	9084	11.3	3
0	9105	11.35	3
0	9106	11.35	3
0	9107	11.35	3
0	9108	11.35	3
0	9121	11.4	3
0	9122	11.4	3
0	9123	11.4	3
0	9124	11.4	3
0	9129	11.4	3
0	9130	11.4	3
0	9131	11.4	3
0	9132	11.4	3
0	9153	11.45	3
0	9154	11.45	3
0	9155	11.45	3
0	9156	11.45	3
0	9169	11.5	3
0	9170	11.5	3
0	9171	11.5	3
0	9172	11.5	3
0	9177	11.5	3
0	9178	11.5	3
0	9179	11.5	3
0	9180	11.5	3
0	9201	11.55	3
0	9202	11.55	3
0	9203	11.55	3
0	9204	11.55	3
0	9391	11.6	3
0	9392	11.6	3
0	9393	11.6	3
0	9394	11.6	3
0	9399	11.6	3
0	9400	11.6	3
0	9401	11.6	3
0	9402	11.6	3
0	9453	11.65	3
0	9454	11.65	3
0	9455	11.65	3
0	9456	11.65	3
0	9469	11.7	3
0	9470	11.7	3
0	9471	11.7	3
0	9472	11.7	3
0	9477	11.7	3
0	9478	11.7	3
0	9479	11.7	3
0	9480	11.7	3
0	9501	11.75	3
0	9502	11.75	3
0	9503	11.75	3
0	9504	11.75	3
0	9517	11.8	3
0	9518	11.8	3
0	9519	11.8	3
0	9520	11.8	3
0	9525	11.8	3
0	9526	11.8	3
0	9527	11.8	3
0	9528	11.8	3
0	9549	11.85	3
0	9550	11.85	3
0	9551	11.85	3
0	9552	11.85	3
0	9565	11.9	3
0	9566	11.9	3
0	9567	11.9	3
0	9568	11.9	3
0	9573	11.9	3
0	9574	11.9	3
0	9575	11.9	3
0	9576	11.9	3
0	9597	11.95	3
0	9598	11.95	3
0	9599	11.95	3
0	9600	11.95	3
0	9613	12	3
0	9614	12	3
0	9615	12	3
0	9616	12	3
0	9621	12	3
0	9622	12	3
0	9623	12	3
0	9624	12	3
0	9645	12.05	3
0	9646	12.05	3
0	9647	12.05	3
0	9648	12.05	3
0	9664	12.1	3
0	9665	12.1	3
0	9666	12.1	3
0	9667	12.1	3
0	9672	12.1	3
0	9673	12.1	3
0	9674	12.1	3
0	9675	12.1	3
0	9873	12.15	3
0	9874	12.15	3
0	9875	12.15	3
0	9876	12.15	3
0	9919	12.2	3
0	9920	12.2	3
0	9921	12.2	3
0	9922	12.2	3
0	9927	12.2	3
0	9928	12.2	3
0	9929	12.2	3
0	9930	12.2	3
0	9951	12.25	3
0	9952	12.25	3
0	9953	12.25	3
0	9954	12.25	3
0	9967	12.3	3
0	9968	12.3	3
0	9969	12.3	3
0	9970	12.3	3
0	9975	12.3	3
0	9976	12.3	3
0	9977	12.3	3
0	9978	12.3	3
0	9999	12.35	3
0	10000	12.35	3
0	10001	12.35	3
0	10002	12.35	3
0	10015	12.4	3
0	10016	12.4	3
0	10017	12.4	3
0	10018	12.4	3
0	10023	12.4	3
0	10024	12.4	3
0	10025	12.4	3
0	10026	12.4	3
0	10047	12.45	3
0	10048	12.45	3
0	10049	12.45	3
0	10050	12.45	3
0	10063	12.5	3
0	10064	12.5	3
0	10065	12.5	3
0	10066	12.5	3
0	10071	12.5	3
0	10072	12.5	3
0	10073	12.5	3
0	10074	12.5	3
0	10095	12.55	3
0	10096	12.55	3
0	10097	12.55	3
0	10098	12.55	3
0	10111	12.6	3
0	10112	12.6	3
0	10113	12.6	3
0	10114	12.6	3
0	10119	12.6	3
0	10120	12.6	3
0	10121	12.6	3
0	10122	12.6	3
0	10143	12.65	3
0	10144	12.65	3
0	10145	12.65	3
0	10146	12.65	3
0	10327	12.7	3
0	10328	12.7	3
0	10329	12.7	3
0	10330	12.7	3
0	10335	12.7	3
0	10336	12.7	3
0	10337	12.7	3
0	10338	12.7	3
0	10359	12.75	3
0	10360	12.75	3
0	10361	12.75	3
0	10362	12.75	3
0	10375	12.8	3
0	10376	12.8	3
0	10377	12.8	3
0	10378	12.8	3
0	10383	12.8	3
0	10384	12.8	3
0	10385	12.8	3
0	10386	12.8	3
0	10407	12.85	3
0	10408	12.85	3
0	10409	12.85	3
0	10410	12.85	3
0	10423	12.9	3
0	10424	12.9	3
0	10425	12.9	3
0	10426	12.9	3
0	10431	12.9	3
0	10432	12.9	3
0	10433	12.9	3
0	10434	12.9	3
0	10455	12.95	3
0	10456	12.95	3
0	10457	12.95	3
0	10458	12.95	3
0	10471	13	3
0	10472	13	3
0	10473	13	3
0	10474	13	3
0	10479	13	3
0	10480	13	3
0	10481	13	3
0	10482	13	3
0	10503	13.05	3
0	10504	13.05	3
0	10505	13.05	3
0	10506	13.05	3
0	10522	13.1	3
0	10523	13.1	3
0	10524	13.1	3
0	10525	13.1	3
0	10530	13.1	3
0	10531	13.1	3
0	10532	13.1	3
0	10533	13.1	3
0	10557	13.15	3
0	10558	13.15	3
0	10559	13.15	3
0	10560	13.15	3
0	10573	13.2	3
0	10574	13.2	3
0	10575	13.2	3
0	10576	13.2	3
0	10581	13.2	3
0	10582	13.2	3
0	10583	13.2	3
0	10584	13.2	3
0	10779	13.25	3
0	10780	13.25	3
0	10781	13.25	3
0	10782	13.25	3
0	10825	13.3	3
0	10826	13.3	3
0	10827	13.3	3
0	10828	13.3	3
0	10833	13.3	3
0	10834	13.3	3
0	10835	13.3	3
0	10836	13.3	3
0	10857	13.35	3
0	10858	13.35	3
0	10859	13.35	3
0	10860	13.35	3
0	10873	13.4	3
0	10874	13.4	3
0	10875	13.4	3
0	10876	13.4	3
0	10881	13.4	3
0	10882	13.4	3
0	10883	13.4	3
0	10884	13.4	3
0	10905	13.45	3
0	10906	13.45	3
0	10907	13.45	3
0	10908	13.45	3
0	10921	13.5	3
0	10922	13.5	3
0	10923	13.5	3
0	10924	13.5	3
0	10929	13.5	3
0	10930	13.5	3
0	10931	13.5	3
0	10932	13.5	3
0	10953	13.55	3
0	10954	13.55	3
0	10955	13.55	3
0	10956	13.55	3
0	10969	13.6	3
0	10970	13.6	3
0	10971	13.6	3
0	10972	13.6	3
0	10977	13.6	3
0	10978	13.6	3
0	10979	13.6	3
0	10980	13.6	3
0	11001	13.65	3
0	11002	13.65	3
0	11003	13.65	3
0	11004	13.65	3
0	11017	13.7	3
0	11018	13.7	3
0	11019	13.7	3
0	11020	13.7	3
0	11025	13.7	3
0	11026	13.7	3
0	11027	13.7	3
0	11028	13.7	3
0	11049	13.75	3
0	11050	13.75	3
0	11051	13.75	3
0	11052	13.75	3
0	11222	13.8	3
0	11223	13.8	3
0	11224	13.8	3
0	11225	13.8	3
0	11230	13.8	3
0	11231	13.8	3
0	11232	13.8	3
0	11233	13.8	3
0	11254	13.85	3
0	11255	13.85	3
0	11256	13.85	3
0	11257	13.85	3
0	11270	13.9	3
0	11271	13.9	3
0	11272	13.9	3
0	11273	13.9	3
0	11278	13.9	3
0	11279	13.9	3
0	11280	13.9	3
0	11281	13.9	3
0	11302	13.95	3
0	11303	13.95	3
0	11304	13.95	3
0	11305	13.95	3
0	11318	14	3
0	11319	14	3
0	11320	14	3
0	11321	14	3
0	11326	14	3
0	11327	14	3
0	11328	14	3
0	11329	14	3
0	11350	14.05	3
0	11351	14.05	3
0	11352	14.05	3
0	11353	14.05	3
0	11369	14.1	3
0	11370	14.1	3
0	11371	14.1	3
0	11372	14.1	3
0	11377	14.1	3
0	11378	14.1	3
0	11379	14.1	3
0	11380	14.1	3
0	11404	14.15	3
0	11405	14.15	3
0	11406	14.15	3
0	11407	14.15	3
0	11420	14.2	3
0	11421	14.2	3
0	11422	14.2	3
0	11423	14.2	3
0	11428	14.2	3
0	11429	14.2	3
0	11430	14.2	3
0	11431	14.2	3
0	11452	14.25	3
0	11453	14.25	3
0	11454	14.25	3
0	11455	14.25	3
0	11468	14.3	3
0	11469	14.3	3
0	11470	14.3	3
0	11471	14.3	3
0	11476	14.3	3
0	11477	14.3	3
0	11478	14.3	3
0	11479	14.3	3
0	11658	14.35	3
0	11659	14.35	3
0	11660	14.35	3
0	11661	14.35	3
0	11694	14.4	3
0	11695	14.4	3
0	11696	14.4	3
0	11697	14.4	3
0	11702	14.4	3
0	11703	14.4	3
0	11704	14.4	3
0	11705	14.4	3
0	11726	14.45	3
0	11727	14.45	3
0	11728	14.45	3
0	11729	14.45	3
0	11768	14.5	3
0	11769	14.5	3
0	11770	14.5	3
0	11771	14.5	3
0	11776	14.5	3
0	11777	14.5	3
0	11778	14.5	3
0	11779	14.5	3
0	11800	14.55	3
0	11801	14.55	3
0	11802	14.55	3
0	11803	14.55	3
0	11816	14.6	3
0	11817	14.6	3
0	11818	14.6	3
0	11819	14.6	3
0	11824	14.6	3
0	11825	14.6	3
0	11826	14.6	3
0	11827	14.6	3
0	11848	14.65	3
0	11849	14.65	3
0	11850	14.65	3
0	11851	14.65	3
0	11864	14.7	3
0	11865	14.7	3
0	11866	14.7	3
0	11867	14.7	3
0	11872	14.7	3
0	11873	14.7	3
0	11874	14.7	3
0	11875	14.7	3
0	11896	14.75	3
0	11897	14.75	3
0	11898	14.75	3
0	11899	14.75	3
0	11912	14.8	3
0	11913	14.8	3
0	11914	14.8	3
0	11915	14.8	3
0	11920	14.8	3
0	11921	14.8	3
0	11922	14.8	3
0	11923	14.8	3
0	11944	14.85	3
0	11945	14.85	3
0	11946	14.85	3
0	11947	14.85	3
0	12114	14.9	3
0	12115	14.9	3
0	12116	14.9	3
0	12117	14.9	3
0	12122	14.9	3
0	12123	14.9	3
0	12124	14.9	3
0	12125	14.9	3
0	12146	14.95	3
0	12147	14.95	3
0	12148	14.95	3
0	12149	14.95	3
0	12166	15	3
0	12167	15	3
0	12168	15	3
0	12169	15	3
0	12174	15	3
0	12175	15	3
0	12176	15	3
0	12177	15	3
0	12212	15.05	3
0	12213	15.05	3
0	12214	15.05	3
0	12215	15.05	3
0	12231	15.1	3
0	12232	15.1	3
0	12233	15.1	3
0	12234	15.1	3
0	12239	15.1	3
0	12240	15.1	3
0	12241	15.1	3
0	12242	15.1	3
0	12266	15.15	3
0	12267	15.15	3
0	12268	15.15	3
0	12269	15.15	3
0	12282	15.2	3
0	12283	15.2	3
0	12284	15.2	3
0	12285	15.2	3
0	12290	15.2	3
0	12291	15.2	3
0	12292	15.2	3
0	12293	15.2	3
0	12314	15.25	3
0	12315	15.25	3
0	12316	15.25	3
0	12317	15.25	3
0	12330	15.3	3
0	12331	15.3	3
0	12332	15.3	3
0	12333	15.3	3
0	12338	15.3	3
0	12339	15.3	3
0	12340	15.3	3
0	12341	15.3	3
0	12362	15.35	3
0	12363	15.35	3
0	12364	15.35	3
0	12365	15.35	3
0	12378	15.4	3
0	12379	15.4	3
0	12380	15.4	3
0	12381	15.4	3
0	12386	15.4	3
0	12387	15.4	3
0	12388	15.4	3
0	12389	15.4	3
0	12568	15.45	3
0	12569	15.45	3
0	12570	15.45	3
0	12571	15.45	3
0	12604	15.5	3
0	12605	15.5	3
0	12606	15.5	3
0	12607	15.5	3
0	12612	15.5	3
0	12613	15.5	3
0	12614	15.5	3
0	12615	15.5	3
0	12636	15.55	3
0	12637	15.55	3
0	12638	15.55	3
0	12639	15.55	3
0	12678	15.6	3
0	12679	15.6	3
0	12680	15.6	3
0	12681	15.6	3
0	12686	15.6	3
0	12687	15.6	3
0	12688	15.6	3
0	12689	15.6	3
0	12710	15.65	3
0	12711	15.65	3
0	12712	15.65	3
0	12713	15.65	3
0	12726	15.7	3
0	12727	15.7	3
0	12728	15.7	3
0	12729	15.7	3
0	12734	15.7	3
0	12735	15.7	3
0	12736	15.7	3
0	12737	15.7	3
0	12758	15.75	3
0	12759	15.75	3
0	12760	15.75	3
0	12761	15.75	3
0	12774	15.8	3
0	12775	15.8	3
0	12776	15.8	3
0	12777	15.8	3
0	12782	15.8	3
0	12783	15.8	3
0	12784	15.8	3
0	12785	15.8	3
0	12806	15.85	3
0	12807	15.85	3
0	12808	15.85	3
0	12809	15.85	3
0	12822	15.9	3
0	12823	15.9	3
0	12824	15.9	3
0	12825	15.9	3
0	12830	15.9	3
0	12831	15.9	3
0	12832	15.9	3
0	12833	15.9	3
0	12854	15.95	3
0	12855	15.95	3
0	12856	15.95	3
0	12857	15.95	3
0	13013	16	3
0	13014	16	3
0	13015	16	3
0	13016	16	3
0	13021	16	3
0	13022	16	3
0	13023	16	3
0	13024	16	3
0	13045	16.05	3
0	13046	16.05	3
0	13047	16.05	3
0	13048	16.05	3
0	13064	16.1	3
0	13065	16.1	3
0	13066	16.1	3
0	13067	16.1	3
0	13072	16.1	3
0	13073	16.1	3
0	13074	16.1	3
0	13075	16.1	3
0	13109	16.15	3
0	13110	16.15	3
0	13111	16.15	3
0	13112	16.15	3
0	13125	16.2	3
0	13126	16.2	3
0	13127	16.2	3
0	13128	16.2	3
0	13133	16.2	3
0	13134	16.2	3
0	13135	16.2	3
0	13136	16.2	3
0	13157	16.25	3
0	13158	16.25	3
0	13159	16.25	3
0	13160	16.25	3
0	13173	16.3	3
0	13174	16.3	3
0	13175	16.3	3
0	13176	16.3	3
0	13181	16.3	3
0	13182	16.3	3
0	13183	16.3	3
0	13184	16.3	3
0	13205	16.35	3
0	13206	16.35	3
0	13207	16.35	3
0	13208	16.35	3
0	13221	16.4	3
0	13222	16.4	3
0	13223	16.4	3
0	13224	16.4	3
0	13229	16.4	3
0	13230	16.4	3
0	13231	16.4	3
0	13232	16.4	3
0	13253	16.45	3
0	13254	16.45	3
0	13255	16.45	3
0	13256	16.45	3
0	13269	16.5	3
0	13270	16.5	3
0	13271	16.5	3
0	13272	16.5	3
0	13277	16.5	3
0	13278	16.5	3
0	13279	16.5	3
0	13280	16.5	3
0	13445	16.55	3
0	13446	16.55	3
0	13447	16.55	3
0	13448	16.55	3
0	13481	16.6	3
0	13482	16.6	3
0	13483	16.6	3
0	13484	16.6	3
0	13489	16.6	3
0	13490	16.6	3
0	13491	16.6	3
0	13492	16.6	3
0	13513	16.65	3
0	13514	16.65	3
0	13515	16.65	3
0	13516	16.65	3
0	13569	16.7	3
0	13570	16.7	3
0	13571	16.7	3
0	13572	16.7	3
0	13577	16.7	3
0	13578	16.7	3
0	13579	16.7	3
0	13580	16.7	3
0	13601	16.75	3
0	13602	16.75	3
0	13603	16.75	3
0	13604	16.75	3
0	13617	16.8	3
0	13618	16.8	3
0	13619	16.8	3
0	13620	16.8	3
0	13625	16.8	3
0	13626	16.8	3
0	13627	16.8	3
0	13628	16.8	3
0	13649	16.85	3
0	13650	16.85	3
0	13651	16.85	3
0	13652	16.85	3
0	13665	16.9	3
0	13666	16.9	3
0	13667	16.9	3
0	13668	16.9	3
0	13673	16.9	3
0	13674	16.9	3
0	13675	16.9	3
0	13676	16.9	3
0	13697	16.95	3
0	13698	16.95	3
0	13699	16.95	3
0	13700	16.95	3
0	13713	17	3
0	13714	17	3
0	13715	17	3
0	13716	17	3
0	13721	17	3
0	13722	17	3
0	13723	17	3
0	13724	17	3
0	13745	17.05	3
0	13746	17.05	3
0	13747	17.05	3
0	13748	17.05	3
0	13900	17.1	3
0	13901	17.1	3
0	13902	17.1	3
0	13903	17.1	3
0	13908	17.1	3
0	13909	17.1	3
0	13910	17.1	3
0	13911	17.1	3
0	13935	17.15	3
0	13936	17.15	3
0	13937	17.15	3
0	13938	17.15	3
0	13951	17.2	3
0	13952	17.2	3
0	13953	17.2	3
0	13954	17.2	3
0	13959	17.2	3
0	13960	17.2	3
0	13961	17.2	3
0	13962	17.2	3
0	14023	17.25	3
0	14024	17.25	3
0	14025	17.25	3
0	14026	17.25	3
0	14039	17.3	3
0	14040	17.3	3
0	14041	17.3	3
0	14042	17.3	3
0	14047	17.3	3
0	14048	17.3	3
0	14049	17.3	3
0	14050	17.3	3
0	14071	17.35	3
0	14072	17.35	3
0	14073	17.35	3
0	14074	17.35	3
0	14087	17.4	3
0	14088	17.4	3
0	14089	17.4	3
0	14090	17.4	3
0	14095	17.4	3
0	14096	17.4	3
0	14097	17.4	3
0	14098	17.4	3
0	14119	17.45	3
0	14120	17.45	3
0	14121	17.45	3
0	14122	17.45	3
0	14135	17.5	3
0	14136	17.5	3
0	14137	17.5	3
0	14138	17.5	3
0	14143	17.5	3
0	14144	17.5	3
0	14145	17.5	3
0	14146	17.5	3
0	14167	17.55	3
0	14168	17.55	3
0	14169	17.55	3
0	14170	17.55	3
0	14183	17.6	3
0	14184	17.6	3
0	14185	17.6	3
0	14186	17.6	3
0	14191	17.6	3
0	14192	17.6	3
0	14193	17.6	3
0	14194	17.6	3
0	14359	17.65	3
0	14360	17.65	3
0	14361	17.65	3
0	14362	17.65	3
0	14395	17.7	3
0	14396	17.7	3
0	14397	17.7	3
0	14398	17.7	3
0	14403	17.7	3
0	14404	17.7	3
0	14405	17.7	3
0	14406	17.7	3
0	14427	17.75	3
0	14428	17.75	3
0	14429	17.75	3
0	14430	17.75	3
0	14467	17.8	3
0	14468	17.8	3
0	14469	17.8	3
0	14470	17.8	3
0	14475	17.8	3
0	14476	17.8	3
0	14477	17.8	3
0	14478	17.8	3
0	14499	17.85	3
0	14500	17.85	3
0	14501	17.85	3
0	14502	17.85	3
0	14515	17.9	3
0	14516	17.9	3
0	14517	17.9	3
0	14518	17.9	3
0	14523	17.9	3
0	14524	17.9	3
0	14525	17.9	3
0	14526	17.9	3
0	14547	17.95	3
0	14548	17.95	3
0	14549	17.95	3
0	14550	17.95	3
0	14563	18	3
0	14564	18	3
0	14565	18	3
0	14566	18	3
0	14571	18	3
0	14572	18	3
0	14573	18	3
0	14574	18	3
0	14595	18.05	3
0	14596	18.05	3
0	14597	18.05	3
0	14598	18.05	3
0	14614	18.1	3
0	14615	18.1	3
0	14616	18.1	3
0	14617	18.1	3
0	14622	18.1	3
0	14623	18.1	3
0	14624	18.1	3
0	14625	18.1	3
0	14649	18.15	3
0	14650	18.15	3
0	14651	18.15	3
0	14652	18.15	3
0	14809	18.2	3
0	14810	18.2	3
0	14811	18.2	3
0	14812	18.2	3
0	14817	18.2	3
0	14818	18.2	3
0	14819	18.2	3
0	14820	18.2	3
0	14861	18.25	3
0	14862	18.25	3
0	14863	18.25	3
0	14864	18.25	3
0	14877	18.3	3
0	14878	18.3	3
0	14879	18.3	3
0	14880	18.3	3
0	14885	18.3	3
0	14886	18.3	3
0	14887	18.3	3
0	14888	18.3	3
0	14938	18.35	3
0	14939	18.35	3
0	14940	18.35	3
0	14941	18.35	3
0	14954	18.4	3
0	14955	18.4	3
0	14956	18.4	3
0	14957	18.4	3
0	14962	18.4	3
0	14963	18.4	3
0	14964	18.4	3
0	14965	18.4	3
0	14986	18.45	3
0	14987	18.45	3
0	14988	18.45	3
0	14989	18.45	3
0	15002	18.5	3
0	15003	18.5	3
0	15004	18.5	3
0	15005	18.5	3
0	15010	18.5	3
0	15011	18.5	3
0	15012	18.5	3
0	15013	18.5	3
0	15034	18.55	3
0	15035	18.55	3
0	15036	18.55	3
0	15037	18.55	3
0	15050	18.6	3
0	15051	18.6	3
0	15052	18.6	3
0	15053	18.6	3
0	15058	18.6	3
0	15059	18.6	3
0	15060	18.6	3
0	15061	18.6	3
0	15082	18.65	3
0	15083	18.65	3
0	15084	18.65	3
0	15085	18.65	3
0	15098	18.7	3
0	15099	18.7	3
0	15100	18.7	3
0	15101	18.7	3
0	15106	18.7	3
0	15107	18.7	3
0	15108	18.7	3
0	15109	18.7	3
0	15245	18.75	3
0	15246	18.75	3
0	15247	18.75	3
0	15248	18.75	3
0	15261	18.8	3
0	15262	18.8	3
0	15263	18.8	3
0	15264	18.8	3
0	15269	18.8	3
0	15270	18.8	3
0	15271	18.8	3
0	15272	18.8	3
0	15293	18.85	3
0	15294	18.85	3
0	15295	18.85	3
0	15296	18.85	3
0	15309	18.9	3
0	15310	18.9	3
0	15311	18.9	3
0	15312	18.9	3
0	15317	18.9	3
0	15318	18.9	3
0	15319	18.9	3
0	15320	18.9	3
0	15341	18.95	3
0	15342	18.95	3
0	15343	18.95	3
0	15344	18.95	3
0	15357	19	3
0	15358	19	3
0	15359	19	3
0	15360	19	3
0	15365	19	3
0	15366	19	3
0	15367	19	3
0	15368	19	3
0	15389	19.05	3
0	15390	19.05	3
0	15391	19.05	3
0	15392	19.05	3
0	15408	19.1	3
0	15409	19.1	3
0	15410	19.1	3
0	15411	19.1	3
0	15416	19.1	3
0	15417	19.1	3
0	15418	19.1	3
0	15419	19.1	3
0	15443	19.15	3
0	15444	19.15	3
0	15445	19.15	3
0	15446	19.15	3
0	15459	19.2	3
0	15460	19.2	3
0	15461	19.2	3
0	15462	19.2	3
0	15467	19.2	3
0	15468	19.2	3
0	15469	19.2	3
0	15470	19.2	3
0	15491	19.25	3
0	15492	19.25	3
0	15493	19.25	3
0	15494	19.25	3
0	15635	19.3	3
0	15636	19.3	3
0	15637	19.3	3
0	15638	19.3	3
0	15643	19.3	3
0	15644	19.3	3
0	15645	19.3	3
0	15646	19.3	3
0	15687	19.35	3
0	15688	19.35	3
0	15689	19.35	3
0	15690	19.35	3
0	15703	19.4	3
0	15704	19.4	3
0	15705	19.4	3
0	15706	19.4	3
0	15711	19.4	3
0	15712	19.4	3
0	15713	19.4	3
0	15714	19.4	3
0	15735	19.45	3
0	15736	19.45	3
0	15737	19.45	3
0	15738	19.45	3
0	15751	19.5	3
0	15752	19.5	3
0	15753	19.5	3
0	15754	19.5	3
0	15759	19.5	3
0	15760	19.5	3
0	15761	19.5	3
0	15762	19.5	3
0	15783	19.55	3
0	15784	19.55	3
0	15785	19.55	3
0	15786	19.55	3
0	15799	19.6	3
0	15800	19.6	3
0	15801	19.6	3
0	15802	19.6	3
0	15807	19.6	3
0	15808	19.6	3
0	15809	19.6	3
0	15810	19.6	3
0	15831	19.65	3
0	15832	19.65	3
0	15833	19.65	3
0	15834	19.65	3
0	15847	19.7	3
0	15848	19.7	3
0	15849	19.7	3
0	15850	19.7	3
0	15855	19.7	3
0	15856	19.7	3
0	15857	19.7	3
0	15858	19.7	3
0	15879	19.75	3
0	15880	19.75	3
0	15881	19.75	3
0	15882	19.75	3
0	15905	19.8	3
0	15906	19.8	3
0	15907	19.8	3
0	15908	19.8	3
0	15913	19.8	3
0	15914	19.8	3
0	15915	19.8	3
0	15916	19.8	3
0	16051	19.85	3
0	16052	19.85	3
0	16053	19.85	3
0	16054	19.85	3
0	16077	19.9	3
0	16078	19.9	3
0	16079	19.9	3
0	16080	19.9	3
0	16085	19.9	3
0	16086	19.9	3
0	16087	19.9	3
0	16088	19.9	3
0	16137	19.95	3
0	16138	19.95	3
0	16139	19.95	3
0	16140	19.95	3
0	16157	20	3
0	16158	20	3
0	16159	20	3
0	16160	20	3
0	16165	20	3
0	16166	20	3
0	16167	20	3
0	16168	20	3
0	16189	20.05	3
0	16190	20.05	3
0	16191	20.05	3
0	16192	20.05	3
0	16222	20.1	3
0	16223	20.1	3
0	16224	20.1	3
0	16225	20.1	3
0	16230	20.1	3
0	16231	20.1	3
0	16232	20.1	3
0	16233	20.1	3
0	16257	20.15	3
0	16258	20.15	3
0	16259	20.15	3
0	16260	20.15	3
0	16273	20.2	3
0	16274	20.2	3
0	16275	20.2	3
0	16276	20.2	3
0	16281	20.2	3
0	16282	20.2	3
0	16283	20.2	3
0	16284	20.2	3
0	16305	20.25	3
0	16306	20.25	3
0	16307	20.25	3
0	16308	20.25	3
0	16321	20.3	3
0	16322	20.3	3
0	16323	20.3	3
0	16324	20.3	3
0	16329	20.3	3
0	16330	20.3	3
0	16331	20.3	3
0	16332	20.3	3
0	16367	20.35	3
0	16368	20.35	3
0	16369	20.35	3
0	16370	20.35	3
0	16509	20.4	3
0	16510	20.4	3
0	16511	20.4	3
0	16512	20.4	3
0	16517	20.4	3
0	16518	20.4	3
0	16519	20.4	3
0	16520	20.4	3
0	16551	20.45	3
0	16552	20.45	3
0	16553	20.45	3
0	16554	20.45	3
0	16596	20.5	3
0	16597	20.5	3
0	16598	20.5	3
0	16599	20.5	3
0	16604	20.5	3
0	16605	20.5	3
0	16606	20.5	3
0	16607	20.5	3
0	16628	20.55	3
0	16629	20.55	3
0	16630	20.55	3
0	16631	20.55	3
0	16644	20.6	3
0	16645	20.6	3
0	16646	20.6	3
0	16647	20.6	3
0	16652	20.6	3
0	16653	20.6	3
0	16654	20.6	3
0	16655	20.6	3
0	16690	20.65	3
0	16691	20.65	3
0	16692	20.65	3
0	16693	20.65	3
0	16706	20.7	3
0	16707	20.7	3
0	16708	20.7	3
0	16709	20.7	3
0	16714	20.7	3
0	16715	20.7	3
0	16716	20.7	3
0	16717	20.7	3
0	16738	20.75	3
0	16739	20.75	3
0	16740	20.75	3
0	16741	20.75	3
0	16754	20.8	3
0	16755	20.8	3
0	16756	20.8	3
0	16757	20.8	3
0	16762	20.8	3
0	16763	20.8	3
0	16764	20.8	3
0	16765	20.8	3
0	16786	20.85	3
0	16787	20.85	3
0	16788	20.85	3
0	16789	20.85	3
0	16802	20.9	3
0	16803	20.9	3
0	16804	20.9	3
0	16805	20.9	3
0	16810	20.9	3
0	16811	20.9	3
0	16812	20.9	3
0	16813	20.9	3
0	16946	20.95	3
0	16947	20.95	3
0	16948	20.95	3
0	16949	20.95	3
0	16962	21	3
0	16963	21	3
0	16964	21	3
0	16965	21	3
0	16970	21	3
0	16971	21	3
0	16972	21	3
0	16973	21	3
0	17004	21.05	3
0	17005	21.05	3
0	17006	21.05	3
0	17007	21.05	3
0	17023	21.1	3
0	17024	21.1	3
0	17025	21.1	3
0	17026	21.1	3
0	17031	21.1	3
0	17032	21.1	3
0	17033	21.1	3
0	17034	21.1	3
0	17058	21.15	3
0	17059	21.15	3
0	17060	21.15	3
0	17061	21.15	3
0	17077	21.2	3
0	17078	21.2	3
0	17079	21.2	3
0	17080	21.2	3
0	17085	21.2	3
0	17086	21.2	3
0	17087	21.2	3
0	17088	21.2	3
0	17109	21.25	3
0	17110	21.25	3
0	17111	21.25	3
0	17112	21.25	3
0	17125	21.3	3
0	17126	21.3	3
0	17127	21.3	3
0	17128	21.3	3
0	17133	21.3	3
0	17134	21.3	3
0	17135	21.3	3
0	17136	21.3	3
0	17157	21.35	3
0	17158	21.35	3
0	17159	21.35	3
0	17160	21.35	3
0	17173	21.4	3
0	17174	21.4	3
0	17175	21.4	3
0	17176	21.4	3
0	17181	21.4	3
0	17182	21.4	3
0	17183	21.4	3
0	17184	21.4	3
0	17205	21.45	3
0	17206	21.45	3
0	17207	21.45	3
0	17208	21.45	3
0	17343	21.5	3
0	17344	21.5	3
0	17345	21.5	3
0	17346	21.5	3
0	17351	21.5	3
0	17352	21.5	3
0	17353	21.5	3
0	17354	21.5	3
0	17385	21.55	3
0	17386	21.55	3
0	17387	21.55	3
0	17388	21.55	3
0	17401	21.6	3
0	17402	21.6	3
0	17403	21.6	3
0	17404	21.6	3
0	17409	21.6	3
0	17410	21.6	3
0	17411	21.6	3
0	17412	21.6	3
0	17433	21.65	3
0	17434	21.65	3
0	17435	21.65	3
0	17436	21.65	3
0	17449	21.7	3
0	17450	21.7	3
0	17451	21.7	3
0	17452	21.7	3
0	17457	21.7	3
0	17458	21.7	3
0	17459	21.7	3
0	17460	21.7	3
0	17481	21.75	3
0	17482	21.75	3
0	17483	21.75	3
0	17484	21.75	3
0	17497	21.8	3
0	17498	21.8	3
0	17499	21.8	3
0	17500	21.8	3
0	17505	21.8	3
0	17506	21.8	3
0	17507	21.8	3
0	17508	21.8	3
0	17529	21.85	3
0	17530	21.85	3
0	17531	21.85	3
0	17532	21.85	3
0	17545	21.9	3
0	17546	21.9	3
0	17547	21.9	3
0	17548	21.9	3
0	17553	21.9	3
0	17554	21.9	3
0	17555	21.9	3
0	17556	21.9	3
0	17591	21.95	3
0	17592	21.95	3
0	17593	21.95	3
0	17594	21.95	3
0	17607	22	3
0	17608	22	3
0	17609	22	3
0	17610	22	3
0	17615	22	3
0	17616	22	3
0	17617	22	3
0	17618	22	3
0	17753	22.05	3
0	17754	22.05	3
0	17755	22.05	3
0	17756	22.05	3
0	17796	22.1	3
0	17797	22.1	3
0	17798	22.1	3
0	17799	22.1	3
0	17804	22.1	3
0	17805	22.1	3
0	17806	22.1	3
0	17807	22.1	3
0	17831	22.15	3
0	17832	22.15	3
0	17833	22.15	3
0	17834	22.15	3
0	17847	22.2	3
0	17848	22.2	3
0	17849	22.2	3
0	17850	22.2	3
0	17855	22.2	3
0	17856	22.2	3
0	17857	22.2	3
0	17858	22.2	3
0	17879	22.25	3
0	17880	22.25	3
0	17881	22.25	3
0	17882	22.25	3
0	17895	22.3	3
0	17896	22.3	3
0	17897	22.3	3
0	17898	22.3	3
0	17903	22.3	3
0	17904	22.3	3
0	17905	22.3	3
0	17906	22.3	3
0	17927	22.35	3
0	17928	22.35	3
0	17929	22.35	3
0	17930	22.35	3
0	17943	22.4	3
0	17944	22.4	3
0	17945	22.4	3
0	17946	22.4	3
0	17951	22.4	3
0	17952	22.4	3
0	17953	22.4	3
0	17954	22.4	3
0	17975	22.45	3
0	17976	22.45	3
0	17977	22.45	3
0	17978	22.45	3
0	18005	22.5	3
0	18006	22.5	3
0	18007	22.5	3
0	18008	22.5	3
0	18013	22.5	3
0	18014	22.5	3
0	18015	22.5	3
0	18016	22.5	3
0	18037	22.55	3
0	18038	22.55	3
0	18039	22.55	3
0	18040	22.55	3
0	18177	22.6	3
0	18178	22.6	3
0	18179	22.6	3
0	18180	22.6	3
0	18185	22.6	3
0	18186	22.6	3
0	18187	22.6	3
0	18188	22.6	3
0	18257	22.65	3
0	18258	22.65	3
0	18259	22.65	3
0	18260	22.65	3
0	18273	22.7	3
0	18274	22.7	3
0	18275	22.7	3
0	18276	22.7	3
0	18281	22.7	3
0	18282	22.7	3
0	18283	22.7	3
0	18284	22.7	3
0	18305	22.75	3
0	18306	22.75	3
0	18307	22.75	3
0	18308	22.75	3
0	18335	22.8	3
0	18336	22.8	3
0	18337	22.8	3
0	18338	22.8	3
0	18343	22.8	3
0	18344	22.8	3
0	18345	22.8	3
0	18346	22.8	3
0	18367	22.85	3
0	18368	22.85	3
0	18369	22.85	3
0	18370	22.85	3
0	18383	22.9	3
0	18384	22.9	3
0	18385	22.9	3
0	18386	22.9	3
0	18391	22.9	3
0	18392	22.9	3
0	18393	22.9	3
0	18394	22.9	3
0	18415	22.95	3
0	18416	22.95	3
0	18417	22.95	3
0	18418	22.95	3
0	18431	23	3
0	18432	23	3
0	18433	23	3
0	18434	23	3
0	18439	23	3
0	18440	23	3
0	18441	23	3
0	18442	23	3
0	18466	23.05	3
0	18467	23.05	3
0	18468	23.05	3
0	18469	23.05	3
0	18485	23.1	3
0	18486	23.1	3
0	18487	23.1	3
0	18488	23.1	3
0	18493	23.1	3
0	18494	23.1	3
0	18495	23.1	3
0	18496	23.1	3
0	18646	23.15	3
0	18647	23.15	3
0	18648	23.15	3
0	18649	23.15	3
0	18710	23.2	3
0	18711	23.2	3
0	18712	23.2	3
0	18713	23.2	3
0	18718	23.2	3
0	18719	23.2	3
0	18720	23.2	3
0	18721	23.2	3
0	18742	23.25	3
0	18743	23.25	3
0	18744	23.25	3
0	18745	23.25	3
0	18758	23.3	3
0	18759	23.3	3
0	18760	23.3	3
0	18761	23.3	3
0	18766	23.3	3
0	18767	23.3	3
0	18768	23.3	3
0	18769	23.3	3
0	18793	23.35	3
0	18794	23.35	3
0	18795	23.35	3
0	18796	23.35	3
0	18809	23.4	3
0	18810	23.4	3
0	18811	23.4	3
0	18812	23.4	3
0	18817	23.4	3
0	18818	23.4	3
0	18819	23.4	3
0	18820	23.4	3
0	18841	23.45	3
0	18842	23.45	3
0	18843	23.45	3
0	18844	23.45	3
0	18857	23.5	3
0	18858	23.5	3
0	18859	23.5	3
0	18860	23.5	3
0	18865	23.5	3
0	18866	23.5	3
0	18867	23.5	3
0	18868	23.5	3
0	18889	23.55	3
0	18890	23.55	3
0	18891	23.55	3
0	18892	23.55	3
0	18905	23.6	3
0	18906	23.6	3
0	18907	23.6	3
0	18908	23.6	3
0	18913	23.6	3
0	18914	23.6	3
0	18915	23.6	3
0	18916	23.6	3
0	18937	23.65	3
0	18938	23.65	3
0	18939	23.65	3
0	18940	23.65	3
0	19054	23.7	3
0	19055	23.7	3
0	19056	23.7	3
0	19057	23.7	3
0	19062	23.7	3
0	19063	23.7	3
0	19064	23.7	3
0	19065	23.7	3
0	19086	23.75	3
0	19087	23.75	3
0	19088	23.75	3
0	19089	23.75	3
0	19102	23.8	3
0	19103	23.8	3
0	19104	23.8	3
0	19105	23.8	3
0	19110	23.8	3
0	19111	23.8	3
0	19112	23.8	3
0	19113	23.8	3
0	19134	23.85	3
0	19135	23.85	3
0	19136	23.85	3
0	19137	23.85	3
0	19150	23.9	3
0	19151	23.9	3
0	19152	23.9	3
0	19153	23.9	3
0	19158	23.9	3
0	19159	23.9	3
0	19160	23.9	3
0	19161	23.9	3
0	19182	23.95	3
0	19183	23.95	3
0	19184	23.95	3
0	19185	23.95	3
0	19198	24	3
0	19199	24	3
0	19200	24	3
0	19201	24	3
0	19206	24	3
0	19207	24	3
0	19208	24	3
0	19209	24	3
0	19230	24.05	3
0	19231	24.05	3
0	19232	24.05	3
0	19233	24.05	3
0	19249	24.1	3
0	19250	24.1	3
0	19251	24.1	3
0	19252	24.1	3
0	19257	24.1	3
0	19258	24.1	3
0	19259	24.1	3
0	19260	24.1	3
0	19284	24.15	3
0	19285	24.15	3
0	19286	24.15	3
0	19287	24.15	3
0	19300	24.2	3
0	19301	24.2	3
0	19302	24.2	3
0	19303	24.2	3
0	19308	24.2	3
0	19309	24.2	3
0	19310	24.2	3
0	19311	24.2	3
0	19448	24.25	3
0	19449	24.25	3
0	19450	24.25	3
0	19451	24.25	3
0	19484	24.3	3
0	19485	24.3	3
0	19486	24.3	3
0	19487	24.3	3
0	19492	24.3	3
0	19493	24.3	3
0	19494	24.3	3
0	19495	24.3	3
0	19516	24.35	3
0	19517	24.35	3
0	19518	24.35	3
0	19519	24.35	3
0	19545	24.4	3
0	19546	24.4	3
0	19547	24.4	3
0	19548	24.4	3
0	19553	24.4	3
0	19554	24.4	3
0	19555	24.4	3
0	19556	24.4	3
0	19577	24.45	3
0	19578	24.45	3
0	19579	24.45	3
0	19580	24.45	3
0	19593	24.5	3
0	19594	24.5	3
0	19595	24.5	3
0	19596	24.5	3
0	19601	24.5	3
0	19602	24.5	3
0	19603	24.5	3
0	19604	24.5	3
0	19625	24.55	3
0	19626	24.55	3
0	19627	24.55	3
0	19628	24.55	3
0	19641	24.6	3
0	19642	24.6	3
0	19643	24.6	3
0	19644	24.6	3
0	19649	24.6	3
0	19650	24.6	3
0	19651	24.6	3
0	19652	24.6	3
0	19673	24.65	3
0	19674	24.65	3
0	19675	24.65	3
0	19676	24.65	3
0	19689	24.7	3
0	19690	24.7	3
0	19691	24.7	3
0	19692	24.7	3
0	19697	24.7	3
0	19698	24.7	3
0	19699	24.7	3
0	19700	24.7	3
0	19721	24.75	3
0	19722	24.75	3
0	19723	24.75	3
0	19724	24.75	3
0	19838	24.8	3
0	19839	24.8	3
0	19840	24.8	3
0	19841	24.8	3
0	19846	24.8	3
0	19847	24.8	3
0	19848	24.8	3
0	19849	24.8	3
0	19870	24.85	3
0	19871	24.85	3
0	19872	24.85	3
0	19873	24.85	3
0	19886	24.9	3
0	19887	24.9	3
0	19888	24.9	3
0	19889	24.9	3
0	19894	24.9	3
0	19895	24.9	3
0	19896	24.9	3
0	19897	24.9	3
0	19928	24.95	3
0	19929	24.95	3
0	19930	24.95	3
0	19931	24.95	3
0	19948	25	3
0	19949	25	3
0	19950	25	3
0	19951	25	3
0	19956	25	3
0	19957	25	3
0	19958	25	3
0	19959	25	3
0	19980	25.05	3
0	19981	25.05	3
0	19982	25.05	3
0	19983	25.05	3
0	19999	25.1	3
0	20000	25.1	3
0	20001	25.1	3
0	20002	25.1	3
0	20007	25.1	3
0	20008	25.1	3
0	20009	25.1	3
0	20010	25.1	3
0	20034	25.15	3
0	20035	25.15	3
0	20036	25.15	3
0	20037	25.15	3
0	20050	25.2	3
0	20051	25.2	3
0	20052	25.2	3
0	20053	25.2	3
0	20058	25.2	3
0	20059	25.2	3
0	20060	25.2	3
0	20061	25.2	3
0	20082	25.25	3
0	20083	25.25	3
0	20084	25.25	3
0	20085	25.25	3
0	20098	25.3	3
0	20099	25.3	3
0	20100	25.3	3
0	20101	25.3	3
0	20106	25.3	3
0	20107	25.3	3
0	20108	25.3	3
0	20109	25.3	3
0	20248	25.35	3
0	20249	25.35	3
0	20250	25.35	3
0	20251	25.35	3
0	20264	25.4	3
0	20265	25.4	3
0	20266	25.4	3
0	20267	25.4	3
0	20272	25.4	3
0	20273	25.4	3
0	20274	25.4	3
0	20275	25.4	3
0	20296	25.45	3
0	20297	25.45	3
0	20298	25.45	3
0	20299	25.45	3
0	20322	25.5	3
0	20323	25.5	3
0	20324	25.5	3
0	20325	25.5	3
0	20330	25.5	3
0	20331	25.5	3
0	20332	25.5	3
0	20333	25.5	3
0	20354	25.55	3
0	20355	25.55	3
0	20356	25.55	3
0	20357	25.55	3
0	20370	25.6	3
0	20371	25.6	3
0	20372	25.6	3
0	20373	25.6	3
0	20378	25.6	3
0	20379	25.6	3
0	20380	25.6	3
0	20381	25.6	3
0	20402	25.65	3
0	20403	25.65	3
0	20404	25.65	3
0	20405	25.65	3
0	20418	25.7	3
0	20419	25.7	3
0	20420	25.7	3
0	20421	25.7	3
0	20426	25.7	3
0	20427	25.7	3
0	20428	25.7	3
0	20429	25.7	3
0	20450	25.75	3
0	20451	25.75	3
0	20452	25.75	3
0	20453	25.75	3
0	20466	25.8	3
0	20467	25.8	3
0	20468	25.8	3
0	20469	25.8	3
0	20474	25.8	3
0	20475	25.8	3
0	20476	25.8	3
0	20477	25.8	3
0	20512	25.85	3
0	20513	25.85	3
0	20514	25.85	3
0	20515	25.85	3
0	20622	25.9	3
0	20623	25.9	3
0	20624	25.9	3
0	20625	25.9	3
0	20630	25.9	3
0	20631	25.9	3
0	20632	25.9	3
0	20633	25.9	3
0	20654	25.95	3
0	20655	25.95	3
0	20656	25.95	3
0	20657	25.95	3
0	20687	26	3
0	20688	26	3
0	20689	26	3
0	20690	26	3
0	20695	26	3
0	20696	26	3
0	20697	26	3
0	20698	26	3
0	20733	26.05	3
0	20734	26.05	3
0	20735	26.05	3
0	20736	26.05	3
0	20752	26.1	3
0	20753	26.1	3
0	20754	26.1	3
0	20755	26.1	3
0	20760	26.1	3
0	20761	26.1	3
0	20762	26.1	3
0	20763	26.1	3
0	20787	26.15	3
0	20788	26.15	3
0	20789	26.15	3
0	20790	26.15	3
0	20803	26.2	3
0	20804	26.2	3
0	20805	26.2	3
0	20806	26.2	3
0	20811	26.2	3
0	20812	26.2	3
0	20813	26.2	3
0	20814	26.2	3
0	20835	26.25	3
0	20836	26.25	3
0	20837	26.25	3
0	20838	26.25	3
0	20851	26.3	3
0	20852	26.3	3
0	20853	26.3	3
0	20854	26.3	3
0	20859	26.3	3
0	20860	26.3	3
0	20861	26.3	3
0	20862	26.3	3
0	20883	26.35	3
0	20884	26.35	3
0	20885	26.35	3
0	20886	26.35	3
0	20905	26.4	3
0	20906	26.4	3
0	20907	26.4	3
0	20908	26.4	3
0	20913	26.4	3
0	20914	26.4	3
0	20915	26.4	3
0	20916	26.4	3
0	21055	26.45	3
0	21056	26.45	3
0	21057	26.45	3
0	21058	26.45	3
0	21071	26.5	3
0	21072	26.5	3
0	21073	26.5	3
0	21074	26.5	3
0	21079	26.5	3
0	21080	26.5	3
0	21081	26.5	3
0	21082	26.5	3
0	21103	26.55	3
0	21104	26.55	3
0	21105	26.55	3
0	21106	26.55	3
0	21122	26.6	3
0	21123	26.6	3
0	21124	26.6	3
0	21125	26.6	3
0	21130	26.6	3
0	21131	26.6	3
0	21132	26.6	3
0	21133	26.6	3
0	21154	26.65	3
0	21155	26.65	3
0	21156	26.65	3
0	21157	26.65	3
0	21170	26.7	3
0	21171	26.7	3
0	21172	26.7	3
0	21173	26.7	3
0	21178	26.7	3
0	21179	26.7	3
0	21180	26.7	3
0	21181	26.7	3
0	21202	26.75	3
0	21203	26.75	3
0	21204	26.75	3
0	21205	26.75	3
0	21218	26.8	3
0	21219	26.8	3
0	21220	26.8	3
0	21221	26.8	3
0	21226	26.8	3
0	21227	26.8	3
0	21228	26.8	3
0	21229	26.8	3
0	21250	26.85	3
0	21251	26.85	3
0	21252	26.85	3
0	21253	26.85	3
0	21266	26.9	3
0	21267	26.9	3
0	21268	26.9	3
0	21269	26.9	3
0	21274	26.9	3
0	21275	26.9	3
0	21276	26.9	3
0	21277	26.9	3
0	21298	26.95	3
0	21299	26.95	3
0	21300	26.95	3
0	21301	26.95	3
0	21398	27	3
0	21399	27	3
0	21400	27	3
0	21401	27	3
0	21406	27	3
0	21407	27	3
0	21408	27	3
0	21409	27	3
0	21430	27.05	3
0	21431	27.05	3
0	21432	27.05	3
0	21433	27.05	3
0	21449	27.1	3
0	21450	27.1	3
0	21451	27.1	3
0	21452	27.1	3
0	21457	27.1	3
0	21458	27.1	3
0	21459	27.1	3
0	21460	27.1	3
0	21484	27.15	3
0	21485	27.15	3
0	21486	27.15	3
0	21487	27.15	3
0	21500	27.2	3
0	21501	27.2	3
0	21502	27.2	3
0	21503	27.2	3
0	21508	27.2	3
0	21509	27.2	3
0	21510	27.2	3
0	21511	27.2	3
0	21532	27.25	3
0	21533	27.25	3
0	21534	27.25	3
0	21535	27.25	3
0	21548	27.3	3
0	21549	27.3	3
0	21550	27.3	3
0	21551	27.3	3
0	21556	27.3	3
0	21557	27.3	3
0	21558	27.3	3
0	21559	27.3	3
0	21580	27.35	3
0	21581	27.35	3
0	21582	27.35	3
0	21583	27.35	3
0	21596	27.4	3
0	21597	27.4	3
0	21598	27.4	3
0	21599	27.4	3
0	21604	27.4	3
0	21605	27.4	3
0	21606	27.4	3
0	21607	27.4	3
0	21628	27.45	3
0	21629	27.45	3
0	21630	27.45	3
0	21631	27.45	3
0	21644	27.5	3
0	21645	27.5	3
0	21646	27.5	3
0	21647	27.5	3
0	21652	27.5	3
0	21653	27.5	3
0	21654	27.5	3
0	21655	27.5	3
0	21784	27.55	3
0	21785	27.55	3
0	21786	27.55	3
0	21787	27.55	3
0	21828	27.6	3
0	21829	27.6	3
0	21830	27.6	3
0	21831	27.6	3
0	21836	27.6	3
0	21837	27.6	3
0	21838	27.6	3
0	21839	27.6	3
0	21860	27.65	3
0	21861	27.65	3
0	21862	27.65	3
0	21863	27.65	3
0	21876	27.7	3
0	21877	27.7	3
0	21878	27.7	3
0	21879	27.7	3
0	21884	27.7	3
0	21885	27.7	3
0	21886	27.7	3
0	21887	27.7	3
0	21914	27.75	3
0	21915	27.75	3
0	21916	27.75	3
0	21917	27.75	3
0	21930	27.8	3
0	21931	27.8	3
0	21932	27.8	3
0	21933	27.8	3
0	21938	27.8	3
0	21939	27.8	3
0	21940	27.8	3
0	21941	27.8	3
0	21962	27.85	3
0	21963	27.85	3
0	21964	27.85	3
0	21965	27.85	3
0	21978	27.9	3
0	21979	27.9	3
0	21980	27.9	3
0	21981	27.9	3
0	21986	27.9	3
0	21987	27.9	3
0	21988	27.9	3
0	21989	27.9	3
0	22010	27.95	3
0	22011	27.95	3
0	22012	27.95	3
0	22013	27.95	3
0	22026	28	3
0	22027	28	3
0	22028	28	3
0	22029	28	3
0	22034	28	3
0	22035	28	3
0	22036	28	3
0	22037	28	3
0	22091	28.05	3
0	22092	28.05	3
0	22093	28.05	3
0	22094	28.05	3
0	22202	28.1	3
0	22203	28.1	3
0	22204	28.1	3
0	22205	28.1	3
0	22210	28.1	3
0	22211	28.1	3
0	22212	28.1	3
0	22213	28.1	3
0	22237	28.15	3
0	22238	28.15	3
0	22239	28.15	3
0	22240	28.15	3
0	22256	28.2	3
0	22257	28.2	3
0	22258	28.2	3
0	22259	28.2	3
0	22264	28.2	3
0	22265	28.2	3
0	22266	28.2	3
0	22267	28.2	3
0	22288	28.25	3
0	22289	28.25	3
0	22290	28.25	3
0	22291	28.25	3
0	22304	28.3	3
0	22305	28.3	3
0	22306	28.3	3
0	22307	28.3	3
0	22312	28.3	3
0	22313	28.3	3
0	22314	28.3	3
0	22315	28.3	3
0	22336	28.35	3
0	22337	28.35	3
0	22338	28.35	3
0	22339	28.35	3
0	22352	28.4	3
0	22353	28.4	3
0	22354	28.4	3
0	22355	28.4	3
0	22360	28.4	3
0	22361	28.4	3
0	22362	28.4	3
0	22363	28.4	3
0	22384	28.45	3
0	22385	28.45	3
0	22386	28.45	3
0	22387	28.45	3
0	22400	28.5	3
0	22401	28.5	3
0	22402	28.5	3
0	22403	28.5	3
0	22408	28.5	3
0	22409	28.5	3
0	22410	28.5	3
0	22411	28.5	3
0	22432	28.55	3
0	22433	28.55	3
0	22434	28.55	3
0	22435	28.55	3
0	22448	28.6	3
0	22449	28.6	3
0	22450	28.6	3
0	22451	28.6	3
0	22456	28.6	3
0	22457	28.6	3
0	22458	28.6	3
0	22459	28.6	3
0	22588	28.65	3
0	22589	28.65	3
0	22590	28.65	3
0	22591	28.65	3
0	22604	28.7	3
0	22605	28.7	3
0	22606	28.7	3
0	22607	28.7	3
0	22612	28.7	3
0	22613	28.7	3
0	22614	28.7	3
0	22615	28.7	3
0	22636	28.75	3
0	22637	28.75	3
0	22638	28.75	3
0	22639	28.75	3
0	22652	28.8	3
0	22653	28.8	3
0	22654	28.8	3
0	22655	28.8	3
0	22660	28.8	3
0	22661	28.8	3
0	22662	28.8	3
0	22663	28.8	3
0	22684	28.85	3
0	22685	28.85	3
0	22686	28.85	3
0	22687	28.85	3
0	22700	28.9	3
0	22701	28.9	3
0	22702	28.9	3
0	22703	28.9	3
0	22708	28.9	3
0	22709	28.9	3
0	22710	28.9	3
0	22711	28.9	3
0	22732	28.95	3
0	22733	28.95	3
0	22734	28.95	3
0	22735	28.95	3
0	22748	29	3
0	22749	29	3
0	22750	29	3
0	22751	29	3
0	22756	29	3
0	22757	29	3
0	22758	29	3
0	22759	29	3
0	22780	29.05	3
0	22781	29.05	3
0	22782	29.05	3
0	22783	29.05	3
0	22799	29.1	3
0	22800	29.1	3
0	22801	29.1	3
0	22802	29.1	3
0	22807	29.1	3
0	22808	29.1	3
0	22809	29.1	3
0	22810	29.1	3
0	22834	29.15	3
0	22835	29.15	3
0	22836	29.15	3
0	22837	29.15	3
0	22975	29.2	3
0	22976	29.2	3
0	22977	29.2	3
0	22978	29.2	3
0	22983	29.2	3
0	22984	29.2	3
0	22985	29.2	3
0	22986	29.2	3
0	23007	29.25	3
0	23008	29.25	3
0	23009	29.25	3
0	23010	29.25	3
0	23023	29.3	3
0	23024	29.3	3
0	23025	29.3	3
0	23026	29.3	3
0	23031	29.3	3
0	23032	29.3	3
0	23033	29.3	3
0	23034	29.3	3
0	23079	29.35	3
0	23080	29.35	3
0	23081	29.35	3
0	23082	29.35	3
0	23095	29.4	3
0	23096	29.4	3
0	23097	29.4	3
0	23098	29.4	3
0	23103	29.4	3
0	23104	29.4	3
0	23105	29.4	3
0	23106	29.4	3
0	23127	29.45	3
0	23128	29.45	3
0	23129	29.45	3
0	23130	29.45	3
0	23143	29.5	3
0	23144	29.5	3
0	23145	29.5	3
0	23146	29.5	3
0	23151	29.5	3
0	23152	29.5	3
0	23153	29.5	3
0	23154	29.5	3
0	23175	29.55	3
0	23176	29.55	3
0	23177	29.55	3
0	23178	29.55	3
0	23191	29.6	3
0	23192	29.6	3
0	23193	29.6	3
0	23194	29.6	3
0	23199	29.6	3
0	23200	29.6	3
0	23201	29.6	3
0	23202	29.6	3
0	23226	29.65	3
0	23227	29.65	3
0	23228	29.65	3
0	23229	29.65	3
0	23242	29.7	3
0	23243	29.7	3
0	23244	29.7	3
0	23245	29.7	3
0	23250	29.7	3
0	23251	29.7	3
0	23252	29.7	3
0	23253	29.7	3
0	23397	29.75	3
0	23398	29.75	3
0	23399	29.75	3
0	23400	29.75	3
0	23428	29.8	3
0	23429	29.8	3
0	23430	29.8	3
0	23431	29.8	3
0	23436	29.8	3
0	23437	29.8	3
0	23438	29.8	3
0	23439	29.8	3
0	23467	29.85	3
0	23468	29.85	3
0	23469	29.85	3
0	23470	29.85	3
0	23511	29.9	3
0	23512	29.9	3
0	23513	29.9	3
0	23514	29.9	3
0	23519	29.9	3
0	23520	29.9	3
0	23521	29.9	3
0	23522	29.9	3
0	23543	29.95	3
0	23544	29.95	3
0	23545	29.95	3
0	23546	29.95	3
0	23563	30	3
0	23564	30	3
0	23565	30	3
0	23566	30	3
0	23571	30	3
0	23572	30	3
0	23573	30	3
0	23574	30	3
0	23595	30.05	3
0	23596	30.05	3
0	23597	30.05	3
0	23598	30.05	3
0	23614	30.1	3
0	23615	30.1	3
0	23616	30.1	3
0	23617	30.1	3
0	23622	30.1	3
0	23623	30.1	3
0	23624	30.1	3
0	23625	30.1	3
0	23649	30.15	3
0	23650	30.15	3
0	23651	30.15	3
0	23652	30.15	3
0	23665	30.2	3
0	23666	30.2	3
0	23667	30.2	3
0	23668	30.2	3
0	23673	30.2	3
0	23674	30.2	3
0	23675	30.2	3
0	23676	30.2	3
0	23697	30.25	3
0	23698	30.25	3
0	23699	30.25	3
0	23700	30.25	3
0	23822	30.3	3
0	23823	30.3	3
0	23824	30.3	3
0	23825	30.3	3
0	23830	30.3	3
0	23831	30.3	3
0	23832	30.3	3
0	23833	30.3	3
0	23854	30.35	3
0	23855	30.35	3
0	23856	30.35	3
0	23857	30.35	3
0	23870	30.4	3
0	23871	30.4	3
0	23872	30.4	3
0	23873	30.4	3
0	23878	30.4	3
0	23879	30.4	3
0	23880	30.4	3
0	23881	30.4	3
0	23916	30.45	3
0	23917	30.45	3
0	23918	30.45	3
0	23919	30.45	3
0	23932	30.5	3
0	23933	30.5	3
0	23934	30.5	3
0	23935	30.5	3
0	23940	30.5	3
0	23941	30.5	3
0	23942	30.5	3
0	23943	30.5	3
0	23964	30.55	3
0	23965	30.55	3
0	23966	30.55	3
0	23967	30.55	3
0	23980	30.6	3
0	23981	30.6	3
0	23982	30.6	3
0	23983	30.6	3
0	23988	30.6	3
0	23989	30.6	3
0	23990	30.6	3
0	23991	30.6	3
0	24012	30.65	3
0	24013	30.65	3
0	24014	30.65	3
0	24015	30.65	3
0	24028	30.7	3
0	24029	30.7	3
0	24030	30.7	3
0	24031	30.7	3
0	24036	30.7	3
0	24037	30.7	3
0	24038	30.7	3
0	24039	30.7	3
0	24060	30.75	3
0	24061	30.75	3
0	24062	30.75	3
0	24063	30.75	3
0	24076	30.8	3
0	24077	30.8	3
0	24078	30.8	3
0	24079	30.8	3
0	24084	30.8	3
0	24085	30.8	3
0	24086	30.8	3
0	24087	30.8	3
0	24233	30.85	3
0	24234	30.85	3
0	24235	30.85	3
0	24236	30.85	3
0	24287	30.9	3
0	24288	30.9	3
0	24289	30.9	3
0	24290	30.9	3
0	24295	30.9	3
0	24296	30.9	3
0	24297	30.9	3
0	24298	30.9	3
0	24320	30.95	3
0	24321	30.95	3
0	24322	30.95	3
0	24323	30.95	3
0	24346	31	3
0	24347	31	3
0	24348	31	3
0	24349	31	3
0	24354	31	3
0	24355	31	3
0	24356	31	3
0	24357	31	3
0	24378	31.05	3
0	24379	31.05	3
0	24380	31.05	3
0	24381	31.05	3
0	24397	31.1	3
0	24398	31.1	3
0	24399	31.1	3
0	24400	31.1	3
0	24405	31.1	3
0	24406	31.1	3
0	24407	31.1	3
0	24408	31.1	3
0	24432	31.15	3
0	24433	31.15	3
0	24434	31.15	3
0	24435	31.15	3
0	24448	31.2	3
0	24449	31.2	3
0	24450	31.2	3
0	24451	31.2	3
0	24456	31.2	3
0	24457	31.2	3
0	24458	31.2	3
0	24459	31.2	3
0	24490	31.25	3
0	24491	31.25	3
0	24492	31.25	3
0	24493	31.25	3
0	24506	31.3	3
0	24507	31.3	3
0	24508	31.3	3
0	24509	31.3	3
0	24514	31.3	3
0	24515	31.3	3
0	24516	31.3	3
0	24517	31.3	3
0	24538	31.35	3
0	24539	31.35	3
0	24540	31.35	3
0	24541	31.35	3
0	24646	31.4	3
0	24647	31.4	3
0	24648	31.4	3
0	24649	31.4	3
0	24654	31.4	3
0	24655	31.4	3
0	24656	31.4	3
0	24657	31.4	3
0	24688	31.45	3
0	24689	31.45	3
0	24690	31.45	3
0	24691	31.45	3
0	24707	31.5	3
0	24708	31.5	3
0	24709	31.5	3
0	24710	31.5	3
0	24715	31.5	3
0	24716	31.5	3
0	24717	31.5	3
0	24718	31.5	3
0	24739	31.55	3
0	24740	31.55	3
0	24741	31.55	3
0	24742	31.55	3
0	24755	31.6	3
0	24756	31.6	3
0	24757	31.6	3
0	24758	31.6	3
0	24763	31.6	3
0	24764	31.6	3
0	24765	31.6	3
0	24766	31.6	3
0	24787	31.65	3
0	24788	31.65	3
0	24789	31.65	3
0	24790	31.65	3
0	24803	31.7	3
0	24804	31.7	3
0	24805	31.7	3
0	24806	31.7	3
0	24811	31.7	3
0	24812	31.7	3
0	24813	31.7	3
0	24814	31.7	3
0	24835	31.75	3
0	24836	31.75	3
0	24837	31.75	3
0	24838	31.75	3
0	24851	31.8	3
0	24852	31.8	3
0	24853	31.8	3
0	24854	31.8	3
0	24859	31.8	3
0	24860	31.8	3
0	24861	31.8	3
0	24862	31.8	3
0	24883	31.85	3
0	24884	31.85	3
0	24885	31.85	3
0	24886	31.85	3
0	24902	31.9	3
0	24903	31.9	3
0	24904	31.9	3
0	24905	31.9	3
0	24910	31.9	3
0	24911	31.9	3
0	24912	31.9	3
0	24913	31.9	3
0	25034	31.95	3
0	25035	31.95	3
0	25036	31.95	3
0	25037	31.95	3
0	25070	32	3
0	25071	32	3
0	25072	32	3
0	25073	32	3
0	25078	32	3
0	25079	32	3
0	25080	32	3
0	25081	32	3
0	25102	32.05	3
0	25103	32.05	3
0	25104	32.05	3
0	25105	32.05	3
0	25121	32.1	3
0	25122	32.1	3
0	25123	32.1	3
0	25124	32.1	3
0	25129	32.1	3
0	25130	32.1	3
0	25131	32.1	3
0	25132	32.1	3
0	25156	32.15	3
0	25157	32.15	3
0	25158	32.15	3
0	25159	32.15	3
0	25172	32.2	3
0	25173	32.2	3
0	25174	32.2	3
0	25175	32.2	3
0	25180	32.2	3
0	25181	32.2	3
0	25182	32.2	3
0	25183	32.2	3
0	25204	32.25	3
0	25205	32.25	3
0	25206	32.25	3
0	25207	32.25	3
0	25220	32.3	3
0	25221	32.3	3
0	25222	32.3	3
0	25223	32.3	3
0	25228	32.3	3
0	25229	32.3	3
0	25230	32.3	3
0	25231	32.3	3
0	25252	32.35	3
0	25253	32.35	3
0	25254	32.35	3
0	25255	32.35	3
0	25268	32.4	3
0	25269	32.4	3
0	25270	32.4	3
0	25271	32.4	3
0	25276	32.4	3
0	25277	32.4	3
0	25278	32.4	3
0	25279	32.4	3
0	25300	32.45	3
0	25301	32.45	3
0	25302	32.45	3
0	25303	32.45	3
0	25424	32.5	3
0	25425	32.5	3
0	25426	32.5	3
0	25427	32.5	3
0	25432	32.5	3
0	25433	32.5	3
0	25434	32.5	3
0	25435	32.5	3
0	25456	32.55	3
0	25457	32.55	3
0	25458	32.55	3
0	25459	32.55	3
0	25475	32.6	3
0	25476	32.6	3
0	25477	32.6	3
0	25478	32.6	3
0	25483	32.6	3
0	25484	32.6	3
0	25485	32.6	3
0	25486	32.6	3
0	25507	32.65	3
0	25508	32.65	3
0	25509	32.65	3
0	25510	32.65	3
0	25523	32.7	3
0	25524	32.7	3
0	25525	32.7	3
0	25526	32.7	3
0	25531	32.7	3
0	25532	32.7	3
0	25533	32.7	3
0	25534	32.7	3
0	25555	32.75	3
0	25556	32.75	3
0	25557	32.75	3
0	25558	32.75	3
0	25571	32.8	3
0	25572	32.8	3
0	25573	32.8	3
0	25574	32.8	3
0	25579	32.8	3
0	25580	32.8	3
0	25581	32.8	3
0	25582	32.8	3
0	25606	32.85	3
0	25607	32.85	3
0	25608	32.85	3
0	25609	32.85	3
0	25622	32.9	3
0	25623	32.9	3
0	25624	32.9	3
0	25625	32.9	3
0	25630	32.9	3
0	25631	32.9	3
0	25632	32.9	3
0	25633	32.9	3
0	25654	32.95	3
0	25655	32.95	3
0	25656	32.95	3
0	25657	32.95	3
0	25694	33	3
0	25695	33	3
0	25696	33	3
0	25697	33	3
0	25702	33	3
0	25703	33	3
0	25704	33	3
0	25705	33	3
0	25810	33.05	3
0	25811	33.05	3
0	25812	33.05	3
0	25813	33.05	3
0	25839	33.1	2
0	25840	33.1	3
0	25841	33.1	2
0	25842	33.1	3
0	25847	33.1	2
0	25848	33.1	3
0	25849	33.1	2
0	25850	33.1	3
0	25877	33.15	2
0	25878	33.15	3
0	25879	33.15	2
0	25880	33.15	3
0	25893	33.2	2
0	25894	33.2	3
0	25895	33.2	2
0	25896	33.2	3
0	25901	33.2	2
0	25902	33.2	3
0	25903	33.2	2
0	25904	33.2	3
0	25928	33.25	2
0	25929	33.25	3
0	25930	33.25	2
0	25931	33.25	3
0	25944	33.3	2
0	25945	33.3	3
0	25946	33.3	2
0	25947	33.3	3
0	25952	33.3	2
0	25953	33.3	3
0	25954	33.3	2
0	25955	33.3	3
0	25976	33.35	2
0	25977	33.35	3
0	25978	33.35	2
0	25979	33.35	3
0	25992	33.4	2
0	25993	33.4	3
0	25994	33.4	2
0	25995	33.4	3
0	26000	33.4	2
0	26001	33.4	3
0	26002	33.4	2
0	26003	33.4	3
0	26024	33.45	2
0	26025	33.45	3
0	26026	33.45	2
0	26027	33.45	3
0	26040	33.5	2
0	26041	33.5	3
0	26042	33.5	2
0	26043	33.5	3
0	26048	33.5	2
0	26049	33.5	3
0	26050	33.5	2
0	26051	33.5	3
0	26072	33.55	2
0	26073	33.55	3
0	26074	33.55	2
0	26075	33.55	3
0	26196	33.6	2
0	26197	33.6	3
0	26198	33.6	2
0	26199	33.6	3
0	26204	33.6	2
0	26205	33.6	3
0	26206	33.6	2
0	26207	33.6	3
0	26228	33.65	2
0	26229	33.65	3
0	26230	33.65	2
0	26231	33.65	3
0	26244	33.7	2
0	26245	33.7	3
0	26246	33.7	2
0	26247	33.7	3
0	26252	33.7	2
0	26253	33.7	3
0	26254	33.7	2
0	26255	33.7	3
0	26276	33.75	2
0	26277	33.75	3
0	26278	33.75	2
0	26279	33.75	3
0	26292	33.8	1
0	26293	33.8	3
0	26294	33.8	2
0	26295	33.8	2
0	26300	33.8	1
0	26301	33.8	3
0	26302	33.8	2
0	26303	33.8	2
0	26324	33.85	1
0	26325	33.85	3
0	26326	33.85	2
0	26327	33.85	2
0	26340	33.9	1
0	26341	33.9	3
0	26342	33.9	2
0	26343	33.9	2
0	26348	33.9	1
0	26349	33.9	3
0	26350	33.9	2
0	26351	33.9	2
0	26372	33.95	1
0	26373	33.95	3
0	26374	33.95	2
0	26375	33.95	2
0	26388	34	1
0	26389	34	3
0	26390	34	2
0	26391	34	2
0	26396	34	1
0	26397	34	3
0	26398	34	2
0	26399	34	2
0	26420	34.05	1
0	26421	34.05	3
0	26422	34.05	2
0	26423	34.05	2
0	26439	34.1	1
0	26440	34.1	3
0	26441	34.1	2
0	26442	34.1	2
0	26447	34.1	1
0	26448	34.1	3
0	26449	34.1	2
0	26450	34.1	2
0	26582	34.15	1
0	26583	34.15	3
0	26584	34.15	2
0	26585	34.15	2
0	26598	34.2	1
0	26599	34.2	3
0	26600	34.2	2
0	26601	34.2	2
0	26606	34.2	1
0	26607	34.2	3
0	26608	34.2	2
0	26609	34.2	2
0	26630	34.25	1
0	26631	34.25	3
0	26632	34.25	2
0	26633	34.25	2
0	26646	34.3	1
0	26647	34.3	3
0	26648	34.3	2
0	26649	34.3	2
0	26654	34.3	1
0	26655	34.3	3
0	26656	34.3	2
0	26657	34.3	2
0	26678	34.35	1
0	26679	34.35	3
0	26680	34.35	2
0	26681	34.35	2
0	26694	34.4	1
0	26695	34.4	3
0	26696	34.4	2
0	26697	34.4	2
0	26702	34.4	1
0	26703	34.4	3
0	26704	34.4	2
0	26705	34.4	2
0	26726	34.45	1
0	26727	34.45	3
0	26728	34.45	2
0	26729	34.45	2
0	26742	34.5	1
0	26743	34.5	3
0	26744	34.5	2
0	26745	34.5	2
0	26750	34.5	1
0	26751	34.5	3
0	26752	34.5	2
0	26753	34.5	2
0	26774	34.55	1
0	26775	34.55	3
0	26776	34.55	2
0	26777	34.55	2
0	26793	34.6	1
0	26794	34.6	3
0	26795	34.6	2
0	26796	34.6	2
0	26801	34.6	1
0	26802	34.6	3
0	26803	34.6	2
0	26804	34.6	2
0	26825	34.65	1
0	26826	34.65	3
0	26827	34.65	2
0	26828	34.65	2
0	26925	34.7	1
0	26926	34.7	3
0	26927	34.7	2
0	26928	34.7	2
0	26933	34.7	1
0	26934	34.7	3
0	26935	34.7	2
0	26936	34.7	2
0	26960	34.75	1
0	26961	34.75	3
0	26962	34.75	2
0	26963	34.75	2
0	26976	34.8	1
0	26977	34.8	3
0	26978	34.8	2
0	26979	34.8	2
0	26984	34.8	1
0	26985	34.8	3
0	26986	34.8	2
0	26987	34.8	2
0	27008	34.85	1
0	27009	34.85	3
0	27010	34.85	2
0	27011	34.85	2
0	27024	34.9	1
0	27025	34.9	3
0	27026	34.9	2
0	27027	34.9	2
0	27032	34.9	1
0	27033	34.9	3
0	27034	34.9	2
0	27035	34.9	2
0	27056	34.95	1
0	27057	34.95	3
0	27058	34.95	2
0	27059	34.95	2
0	27076	35	1
0	27077	35	3
0	27078	35	2
0	27079	35	2
0	27084	35	1
0	27085	35	3
0	27086	35	2
0	27087	35	2
0	27108	35.05	1
0	27109	35.05	3
0	27110	35.05	2
0	27111	35.05	2
0	27127	35.1	1
0	27128	35.1	3
0	27129	35.1	2
0	27130	35.1	2
0	27135	35.1	1
0	27136	35.1	3
0	27137	35.1	2
0	27138	35.1	2
0	27162	35.15	1
0	27163	35.15	3
0	27164	35.15	2
0	27165	35.15	2
0	27178	35.2	1
0	27179	35.2	3
0	27180	35.2	2
0	27181	35.2	2
0	27186	35.2	1
0	27187	35.2	3
0	27188	35.2	2
0	27189	35.2	2
0	27318	35.25	1
0	27319	35.25	3
0	27320	35.25	2
0	27321	35.25	2
0	27334	35.3	1
0	27335	35.3	3
0	27336	35.3	2
0	27337	35.3	2
0	27342	35.3	1
0	27343	35.3	3
0	27344	35.3	2
0	27345	35.3	2
0	27366	35.35	1
0	27367	35.35	3
0	27368	35.35	2
0	27369	35.35	2
0	27382	35.4	1
0	27383	35.4	3
0	27384	35.4	2
0	27385	35.4	2
0	27390	35.4	1
0	27391	35.4	3
0	27392	35.4	2
0	27393	35.4	2
0	27414	35.45	1
0	27415	35.45	3
0	27416	35.45	2
0	27417	35.45	2
0	27430	35.5	1
0	27431	35.5	3
0	27432	35.5	2
0	27433	35.5	2
0	27438	35.5	1
0	27439	35.5	3
0	27440	35.5	2
0	27441	35.5	2
0	27462	35.55	1
0	27463	35.55	3
0	27464	35.55	2
0	27465	35.55	2
0	27478	35.6	1
0	27479	35.6	3
0	27480	35.6	2
0	27481	35.6	2
0	27486	35.6	1
0	27487	35.6	3
0	27488	35.6	2
0	27489	35.6	2
0	27510	35.65	1
0	27511	35.65	3
0	27512	35.65	2
0	27513	35.65	2
0	27526	35.7	1
0	27527	35.7	3
0	27528	35.7	2
0	27529	35.7	2
0	27534	35.7	1
0	27535	35.7	3
0	27536	35.7	2
0	27537	35.7	2
0	27558	35.75	1
0	27559	35.75	3
0	27560	35.75	2
0	27561	35.75	2
0	27658	35.8	1
0	27659	35.8	3
0	27660	35.8	2
0	27661	35.8	2
0	27666	35.8	1
0	27667	35.8	3
0	27668	35.8	2
0	27669	35.8	2
0	27690	35.85	1
0	27691	35.85	3
0	27692	35.85	2
0	27693	35.85	2
0	27706	35.9	1
0	27707	35.9	3
0	27708	35.9	2
0	27709	35.9	2
0	27714	35.9	1
0	27715	35.9	3
0	27716	35.9	2
0	27717	35.9	2
0	27738	35.95	1
0	27739	35.95	3
0	27740	35.95	2
0	27741	35.95	2
0	27754	36	1
0	27755	36	3
0	27756	36	2
0	27757	36	2
0	27762	36	1
0	27763	36	3
0	27764	36	2
0	27765	36	2
0	27786	36.05	1
0	27787	36.05	3
0	27788	36.05	2
0	27789	36.05	2
0	27805	36.1	1
0	27806	36.1	3
0	27807	36.1	2
0	27808	36.1	2
0	27812	36.1	1
0	27813	36.1	3
0	27814	36.1	2
0	27815	36.1	2
0	27839	36.15	1
0	27840	36.15	3
0	27841	36.15	2
0	27842	36.15	2
0	27858	36.2	1
0	27859	36.2	3
0	27860	36.2	2
0	27861	36.2	2
0	27865	36.2	1
0	27866	36.2	3
0	27867	36.2	2
0	27868	36.2	2
0	27889	36.25	1
0	27890	36.25	3
0	27891	36.25	2
0	27892	36.25	2
0	27905	36.3	1
0	27906	36.3	3
0	27907	36.3	2
0	27908	36.3	2
0	27912	36.3	1
0	27913	36.3	3
0	27914	36.3	2
0	27915	36.3	2
0	28037	36.35	1
0	28038	36.35	3
0	28039	36.35	2
0	28040	36.35	2
0	28063	36.4	1
0	28064	36.4	3
0	28065	36.4	2
0	28066	36.4	2
0	28070	36.4	1
0	28071	36.4	3
0	28072	36.4	2
0	28073	36.4	2
0	28094	36.45	1
0	28095	36.45	3
0	28096	36.45	2
0	28097	36.45	2
0	28110	36.5	1
0	28111	36.5	3
0	28112	36.5	2
0	28113	36.5	2
0	28117	36.5	1
0	28118	36.5	3
0	28119	36.5	2
0	28120	36.5	2
0	28141	36.55	1
0	28142	36.55	3
0	28143	36.55	2
0	28144	36.55	2
0	28157	36.6	1
0	28158	36.6	3
0	28159	36.6	2
0	28160	36.6	2
0	28164	36.6	1
0	28165	36.6	3
0	28166	36.6	2
0	28167	36.6	2
0	28188	36.65	1
0	28189	36.65	3
0	28190	36.65	2
0	28191	36.65	2
0	28204	36.7	2
0	28205	36.7	3
0	28206	36.7	2
0	28207	36.7	3
0	28211	36.7	2
0	28212	36.7	3
0	28213	36.7	2
0	28214	36.7	3
0	28235	36.75	2
0	28236	36.75	3
0	28237	36.75	2
0	28238	36.75	3
0	28251	36.8	2
0	28252	36.8	3
0	28253	36.8	2
0	28254	36.8	3
0	28258	36.8	2
0	28259	36.8	3
0	28260	36.8	2
0	28261	36.8	3
0	28282	36.85	2
0	28283	36.85	3
0	28284	36.85	2
0	28285	36.85	3
0	28382	36.9	2
0	28383	36.9	3
0	28384	36.9	2
0	28385	36.9	3
0	28389	36.9	2
0	28390	36.9	3
0	28391	36.9	2
0	28392	36.9	3
0	28413	36.95	2
0	28414	36.95	3
0	28415	36.95	2
0	28416	36.95	3
0	28429	37	2
0	28430	37	3
0	28431	37	2
0	28432	37	3
0	28436	37	2
0	28437	37	3
0	28438	37	2
0	28439	37	3
0	28460	37.05	2
0	28461	37.05	3
0	28462	37.05	2
0	28463	37.05	3
0	28479	37.1	2
0	28480	37.1	3
0	28481	37.1	2
0	28482	37.1	3
0	28486	37.1	2
0	28487	37.1	3
0	28488	37.1	2
0	28489	37.1	3
0	28513	37.15	2
0	28514	37.15	3
0	28515	37.15	2
0	28516	37.15	3
0	28529	37.2	2
0	28530	37.2	3
0	28531	37.2	2
0	28532	37.2	3
0	28536	37.2	2
0	28537	37.2	3
0	28538	37.2	2
0	28539	37.2	3
0	28560	37.25	2
0	28561	37.25	3
0	28562	37.25	2
0	28563	37.25	3
0	28576	37.3	2
0	28577	37.3	3
0	28578	37.3	2
0	28579	37.3	3
0	28583	37.3	2
0	28584	37.3	3
0	28585	37.3	2
0	28586	37.3	3
0	28607	37.35	2
0	28608	37.35	3
0	28609	37.35	2
0	28610	37.35	3
0	28623	37.4	2
0	28624	37.4	3
0	28625	37.4	2
0	28626	37.4	3
0	28630	37.4	2
0	28631	37.4	3
0	28632	37.4	2
0	28633	37.4	3
0	28762	37.45	2
0	28763	37.45	3
0	28764	37.45	2
0	28765	37.45	3
0	28778	37.5	2
0	28779	37.5	3
0	28780	37.5	2
0	28781	37.5	3
0	28785	37.5	2
0	28786	37.5	3
0	28787	37.5	2
0	28788	37.5	3
0	28809	37.55	2
0	28810	37.55	3
0	28811	37.55	2
0	28812	37.55	3
0	28825	37.6	2
0	28826	37.6	3
0	28827	37.6	2
0	28828	37.6	3
0	28832	37.6	2
0	28833	37.6	3
0	28834	37.6	2
0	28835	37.6	3
0	28856	37.65	2
0	28857	37.65	3
0	28858	37.65	2
0	28859	37.65	3
0	28872	37.7	2
0	28873	37.7	3
0	28874	37.7	2
0	28875	37.7	3
0	28879	37.7	2
0	28880	37.7	3
0	28881	37.7	2
0	28882	37.7	3
0	28903	37.75	2
0	28904	37.75	3
0	28905	37.75	2
0	28906	37.75	3
0	28975	37.8	2
0	28976	37.8	3
0	28977	37.8	2
0	28978	37.8	3
0	28982	37.8	2
0	28983	37.8	3
0	28984	37.8	2
0	28985	37.8	3
0	29028	37.85	2
0	29029	37.85	3
0	29030	37.85	2
0	29031	37.85	3
0	29060	37.9	2
0	29061	37.9	3
0	29062	37.9	2
0	29063	37.9	3
0	29067	37.9	2
0	29068	37.9	3
0	29069	37.9	2
0	29070	37.9	3
0	29096	37.95	2
0	29097	37.95	3
0	29098	37.95	2
0	29099	37.95	3
0	29196	38	2
0	29197	38	3
0	29198	38	2
0	29199	38	3
0	29203	38	2
0	29204	38	3
0	29205	38	2
0	29206	38	3
0	29227	38.05	2
0	29228	38.05	3
0	29229	38.05	2
0	29230	38.05	3
0	29246	38.1	2
0	29247	38.1	3
0	29248	38.1	2
0	29249	38.1	3
0	29253	38.1	2
0	29254	38.1	3
0	29255	38.1	2
0	29256	38.1	3
0	29280	38.15	2
0	29281	38.15	3
0	29282	38.15	2
0	29283	38.15	3
0	29296	38.2	2
0	29297	38.2	3
0	29298	38.2	2
0	29299	38.2	3
0	29303	38.2	2
0	29304	38.2	3
0	29305	38.2	2
0	29306	38.2	3
0	29327	38.25	2
0	29328	38.25	3
0	29329	38.25	2
0	29330	38.25	3
0	29343	38.3	2
0	29344	38.3	3
0	29345	38.3	2
0	29346	38.3	3
0	29350	38.3	2
0	29351	38.3	3
0	29352	38.3	2
0	29353	38.3	3
0	29391	38.35	2
0	29392	38.35	3
0	29393	38.35	2
0	29394	38.35	3
0	29407	38.4	2
0	29408	38.4	3
0	29409	38.4	2
0	29410	38.4	3
0	29414	38.4	2
0	29415	38.4	3
0	29416	38.4	2
0	29417	38.4	3
0	29438	38.45	2
0	29439	38.45	3
0	29440	38.45	2
0	29441	38.45	3
0	29454	38.5	2
0	29455	38.5	3
0	29456	38.5	2
0	29457	38.5	3
0	29461	38.5	2
0	29462	38.5	3
0	29463	38.5	2
0	29464	38.5	3
0	29605	38.55	2
0	29606	38.55	3
0	29607	38.55	2
0	29608	38.55	3
0	29657	38.6	2
0	29658	38.6	3
0	29659	38.6	2
0	29660	38.6	3
0	29664	38.6	2
0	29665	38.6	3
0	29666	38.6	2
0	29667	38.6	3
0	29712	38.65	2
0	29713	38.65	3
0	29714	38.65	2
0	29715	38.65	3
0	29728	38.7	1
0	29729	38.7	2
0	29730	38.7	2
0	29731	38.7	3
0	29735	38.7	1
0	29736	38.7	2
0	29737	38.7	2
0	29738	38.7	3
0	29759	38.75	1
0	29760	38.75	2
0	29761	38.75	2
0	29762	38.75	3
0	29775	38.8	1
0	29776	38.8	2
0	29777	38.8	2
0	29778	38.8	3
0	29782	38.8	1
0	29783	38.8	2
0	29784	38.8	2
0	29785	38.8	3
0	29806	38.85	1
0	29807	38.85	2
0	29808	38.85	2
0	29809	38.85	3
0	29871	38.9	1
0	29872	38.9	2
0	29873	38.9	2
0	29874	38.9	3
0	29878	38.9	1
0	29879	38.9	2
0	29880	38.9	2
0	29881	38.9	3
0	29926	38.95	1
0	29927	38.95	2
0	29928	38.95	2
0	29929	38.95	3
0	29967	39	1
0	29968	39	2
0	29969	39	2
0	29970	39	3
0	29974	39	1
0	29975	39	2
0	29976	39	2
0	29977	39	3
0	30033	39.05	1
0	30034	39.05	2
0	30035	39.05	2
0	30036	39.05	3
0	30136	39.1	1
0	30137	39.1	2
0	30138	39.1	2
0	30139	39.1	3
0	30143	39.1	1
0	30144	39.1	2
0	30145	39.1	2
0	30146	39.1	3
0	30170	39.15	1
0	30171	39.15	2
0	30172	39.15	2
0	30173	39.15	3
0	30186	39.2	1
0	30187	39.2	2
0	30188	39.2	2
0	30189	39.2	3
0	30193	39.2	1
0	30194	39.2	2
0	30195	39.2	2
0	30196	39.2	3
0	30217	39.25	1
0	30218	39.25	2
0	30219	39.25	2
0	30220	39.25	3
0	30233	39.3	1
0	30234	39.3	2
0	30235	39.3	2
0	30236	39.3	3
0	30240	39.3	1
0	30241	39.3	2
0	30242	39.3	2
0	30243	39.3	3
0	30264	39.35	1
0	30265	39.35	2
0	30266	39.35	2
0	30267	39.35	3
0	30280	39.4	1
0	30281	39.4	2
0	30282	39.4	2
0	30283	39.4	3
0	30287	39.4	1
0	30288	39.4	2
0	30289	39.4	2
0	30290	39.4	3
0	30321	39.45	1
0	30322	39.45	2
0	30323	39.45	2
0	30324	39.45	3
0	30337	39.5	1
0	30338	39.5	2
0	30339	39.5	2
0	30340	39.5	3
0	30344	39.5	1
0	30345	39.5	2
0	30346	39.5	2
0	30347	39.5	3
0	30368	39.55	1
0	30369	39.55	2
0	30370	39.55	2
0	30371	39.55	3
0	30398	39.6	1
0	30399	39.6	2
0	30400	39.6	2
0	30401	39.6	3
0	30405	39.6	1
0	30406	39.6	2
0	30407	39.6	2
0	30408	39.6	3
0	30553	39.65	1
0	30554	39.65	2
0	30555	39.65	2
0	30556	39.65	3
0	30605	39.7	1
0	30606	39.7	2
0	30607	39.7	2
0	30608	39.7	3
0	30612	39.7	1
0	30613	39.7	2
0	30614	39.7	2
0	30615	39.7	3
0	30670	39.75	1
0	30671	39.75	2
0	30672	39.75	2
0	30673	39.75	3
0	30696	39.8	1
0	30697	39.8	2
0	30698	39.8	2
0	30699	39.8	3
0	30703	39.8	1
0	30704	39.8	2
0	30705	39.8	2
0	30706	39.8	3
0	30727	39.85	1
0	30728	39.85	2
0	30729	39.85	2
0	30730	39.85	3
0	30743	39.9	1
0	30744	39.9	2
0	30745	39.9	2
0	30746	39.9	3
0	30750	39.9	1
0	30751	39.9	2
0	30752	39.9	2
0	30753	39.9	3
0	30774	39.95	1
0	30775	39.95	2
0	30776	39.95	2
0	30777	39.95	3
0	30840	40	1
0	30841	40	2
0	30842	40	2
0	30843	40	3
0	30847	40	1
0	30848	40	2
0	30849	40	2
0	30850	40	3
0	30902	40.05	1
0	30903	40.05	2
0	30904	40.05	2
0	30905	40.05	3
0	30921	40.1	1
0	30922	40.1	2
0	30923	40.1	2
0	30924	40.1	3
0	30928	40.1	1
0	30929	40.1	2
0	30930	40.1	2
0	30931	40.1	3
0	30965	40.15	1
0	30966	40.15	2
0	30967	40.15	2
0	30968	40.15	3
0	31077	40.2	1
0	31078	40.2	2
0	31079	40.2	2
0	31080	40.2	3
0	31084	40.2	1
0	31085	40.2	2
0	31086	40.2	2
0	31087	40.2	3
0	31108	40.25	1
0	31109	40.25	2
0	31110	40.25	2
0	31111	40.25	3
0	31124	40.3	1
0	31125	40.3	2
0	31126	40.3	2
0	31127	40.3	3
0	31131	40.3	1
0	31132	40.3	2
0	31133	40.3	2
0	31134	40.3	3
0	31155	40.35	1
0	31156	40.35	2
0	31157	40.35	2
0	31158	40.35	3
0	31171	40.4	1
0	31172	40.4	2
0	31173	40.4	2
0	31174	40.4	3
0	31178	40.4	1
0	31179	40.4	2
0	31180	40.4	2
0	31181	40.4	3
0	31202	40.45	1
0	31203	40.45	2
0	31204	40.45	2
0	31205	40.45	3
0	31218	40.5	1
0	31219	40.5	2
0	31220	40.5	2
0	31221	40.5	3
0	31225	40.5	1
0	31226	40.5	2
0	31227	40.5	2
0	31228	40.5	3
0	31259	40.55	1
0	31260	40.55	2
0	31261	40.55	2
0	31262	40.55	3
0	31275	40.6	1
0	31276	40.6	2
0	31277	40.6	2
0	31278	40.6	3
0	31282	40.6	1
0	31283	40.6	2
0	31284	40.6	2
0	31285	40.6	3
0	31306	40.65	1
0	31307	40.65	2
0	31308	40.65	2
0	31309	40.65	3
0	31325	40.7	1
0	31326	40.7	2
0	31327	40.7	2
0	31328	40.7	3
0	31332	40.7	1
0	31333	40.7	2
0	31334	40.7	2
0	31335	40.7	3
0	31458	40.75	1
0	31459	40.75	2
0	31460	40.75	2
0	31461	40.75	3
0	31510	40.8	1
0	31511	40.8	2
0	31512	40.8	2
0	31513	40.8	3
0	31517	40.8	1
0	31518	40.8	2
0	31519	40.8	2
0	31520	40.8	3
0	31552	40.85	1
0	31553	40.85	2
0	31554	40.85	2
0	31555	40.85	3
0	31568	40.9	1
0	31569	40.9	2
0	31570	40.9	2
0	31571	40.9	3
0	31575	40.9	1
0	31576	40.9	2
0	31577	40.9	2
0	31578	40.9	3
0	31599	40.95	1
0	31600	40.95	2
0	31601	40.95	2
0	31602	40.95	3
0	31615	41	1
0	31616	41	2
0	31617	41	2
0	31618	41	3
0	31622	41	1
0	31623	41	2
0	31624	41	2
0	31625	41	3
0	31646	41.05	1
0	31647	41.05	2
0	31648	41.05	2
0	31649	41.05	3
0	31665	41.1	1
0	31666	41.1	2
0	31667	41.1	2
0	31668	41.1	3
0	31672	41.1	1
0	31673	41.1	2
0	31674	41.1	2
0	31675	41.1	3
0	31699	41.15	1
0	31700	41.15	2
0	31701	41.15	2
0	31702	41.15	3
0	31715	41.2	1
0	31716	41.2	2
0	31717	41.2	2
0	31718	41.2	3
0	31722	41.2	1
0	31723	41.2	2
0	31724	41.2	2
0	31725	41.2	3
0	31746	41.25	1
0	31747	41.25	2
0	31748	41.25	2
0	31749	41.25	3
0	31869	41.3	1
0	31870	41.3	2
0	31871	41.3	2
0	31872	41.3	3
0	31876	41.3	1
0	31877	41.3	2
0	31878	41.3	2
0	31879	41.3	3
0	31910	41.35	1
0	31911	41.35	2
0	31912	41.35	2
0	31913	41.35	3
0	31926	41.4	1
0	31927	41.4	2
0	31928	41.4	2
0	31929	41.4	3
0	31933	41.4	1
0	31934	41.4	2
0	31935	41.4	2
0	31936	41.4	3
0	31957	41.45	1
0	31958	41.45	2
0	31959	41.45	2
0	31960	41.45	3
0	31973	41.5	1
0	31974	41.5	2
0	31975	41.5	2
0	31976	41.5	3
0	31980	41.5	1
0	31981	41.5	2
0	31982	41.5	2
0	31983	41.5	3
0	32004	41.55	1
0	32005	41.55	2
0	32006	41.55	2
0	32007	41.55	3
0	32020	41.6	1
0	32021	41.6	2
0	32022	41.6	2
0	32023	41.6	3
0	32027	41.6	1
0	32028	41.6	2
0	32029	41.6	2
0	32030	41.6	3
0	32051	41.65	1
0	32052	41.65	2
0	32053	41.65	2
0	32054	41.65	3
0	32067	41.7	1
0	32068	41.7	2
0	32069	41.7	2
0	32070	41.7	3
0	32074	41.7	1
0	32075	41.7	2
0	32076	41.7	2
0	32077	41.7	3
0	32098	41.75	1
0	32099	41.75	2
0	32100	41.75	2
0	32101	41.75	3
0	32114	41.8	1
0	32115	41.8	2
0	32116	41.8	2
0	32117	41.8	3
0	32121	41.8	1
0	32122	41.8	2
0	32123	41.8	2
0	32124	41.8	3
0	32232	41.85	1
0	32233	41.85	2
0	32234	41.85	2
0	32235	41.85	3
0	32248	41.9	1
0	32249	41.9	2
0	32250	41.9	2
0	32251	41.9	3
0	32255	41.9	1
0	32256	41.9	2
0	32257	41.9	2
0	32258	41.9	3
0	32279	41.95	1
0	32280	41.95	2
0	32281	41.95	2
0	32282	41.95	3
0	32295	42	1
0	32296	42	2
0	32297	42	2
0	32298	42	3
0	32302	42	1
0	32303	42	2
0	32304	42	2
0	32305	42	3
0	32326	42.05	1
0	32327	42.05	2
0	32328	42.05	2
0	32329	42.05	3
0	32345	42.1	1
0	32346	42.1	2
0	32347	42.1	2
0	32348	42.1	3
0	32352	42.1	1
0	32353	42.1	2
0	32354	42.1	2
0	32355	42.1	3
0	32421	42.15	1
0	32422	42.15	2
0	32423	42.15	2
0	32424	42.15	3
0	32457	42.2	1
0	32458	42.2	2
0	32459	42.2	2
0	32460	42.2	3
0	32464	42.2	1
0	32465	42.2	2
0	32466	42.2	2
0	32467	42.2	3
0	32488	42.25	1
0	32489	42.25	2
0	32490	42.25	2
0	32491	42.25	3
0	32518	42.3	1
0	32519	42.3	2
0	32520	42.3	2
0	32521	42.3	3
0	32525	42.3	1
0	32526	42.3	2
0	32527	42.3	2
0	32528	42.3	3
0	32549	42.35	1
0	32550	42.35	2
0	32551	42.35	2
0	32552	42.35	3
0	32650	42.4	1
0	32651	42.4	2
0	32652	42.4	2
0	32653	42.4	3
0	32657	42.4	1
0	32658	42.4	2
0	32659	42.4	2
0	32660	42.4	3
0	32681	42.45	1
0	32682	42.45	2
0	32683	42.45	2
0	32684	42.45	3
0	32697	42.5	1
0	32698	42.5	2
0	32699	42.5	2
0	32700	42.5	3
0	32704	42.5	1
0	32705	42.5	2
0	32706	42.5	2
0	32707	42.5	3
0	32728	42.55	1
0	32729	42.55	2
0	32730	42.55	2
0	32731	42.55	3
0	32744	42.6	1
0	32745	42.6	2
0	32746	42.6	2
0	32747	42.6	3
0	32751	42.6	1
0	32752	42.6	2
0	32753	42.6	2
0	32754	42.6	3
0	32775	42.65	1
0	32776	42.65	2
0	32777	42.65	2
0	32778	42.65	3
0	32794	42.7	1
0	32795	42.7	2
0	32796	42.7	2
0	32797	42.7	3
0	32801	42.7	1
0	32802	42.7	2
0	32803	42.7	2
0	32804	42.7	3
0	32825	42.75	1
0	32826	42.75	2
0	32827	42.75	2
0	32828	42.75	3
0	32841	42.8	1
0	32842	42.8	2
0	32843	42.8	2
0	32844	42.8	3
0	32848	42.8	1
0	32849	42.8	2
0	32850	42.8	2
0	32851	42.8	3
0	32872	42.85	1
0	32873	42.85	2
0	32874	42.85	2
0	32875	42.85	3
0	32888	42.9	1
0	32889	42.9	2
0	32890	42.9	2
0	32891	42.9	3
0	32895	42.9	1
0	32896	42.9	2
0	32897	42.9	2
0	32898	42.9	3
0	33011	42.95	1
0	33012	42.95	2
0	33013	42.95	2
0	33014	42.95	3
0	33067	43	1
0	33068	43	2
0	33069	43	2
0	33070	43	3
0	33074	43	1
0	33075	43	2
0	33076	43	2
0	33077	43	3
0	33108	43.05	1
0	33109	43.05	2
0	33110	43.05	2
0	33111	43.05	3
0	33141	43.1	1
0	33142	43.1	2
0	33143	43.1	2
0	33144	43.1	3
0	33148	43.1	1
0	33149	43.1	2
0	33150	43.1	2
0	33151	43.1	3
0	33175	43.15	1
0	33176	43.15	2
0	33177	43.15	2
0	33178	43.15	3
0	33191	43.2	1
0	33192	43.2	2
0	33193	43.2	2
0	33194	43.2	3
0	33198	43.2	1
0	33199	43.2	2
0	33200	43.2	2
0	33201	43.2	3
0	33222	43.25	1
0	33223	43.25	2
0	33224	43.25	2
0	33225	43.25	3
0	33238	43.3	1
0	33239	43.3	2
0	33240	43.3	2
0	33241	43.3	3
0	33245	43.3	1
0	33246	43.3	2
0	33247	43.3	2
0	33248	43.3	3
0	33269	43.35	1
0	33270	43.35	2
0	33271	43.35	2
0	33272	43.35	3
0	33285	43.4	1
0	33286	43.4	2
0	33287	43.4	2
0	33288	43.4	3
0	33292	43.4	1
0	33293	43.4	2
0	33294	43.4	2
0	33295	43.4	3
0	33316	43.45	1
0	33317	43.45	2
0	33318	43.45	2
0	33319	43.45	3
0	33426	43.5	1
0	33427	43.5	2
0	33428	43.5	2
0	33429	43.5	3
0	33433	43.5	1
0	33434	43.5	2
0	33435	43.5	2
0	33436	43.5	3
0	33457	43.55	1
0	33458	43.55	2
0	33459	43.55	2
0	33460	43.55	3
0	33473	43.6	1
0	33474	43.6	2
0	33475	43.6	2
0	33476	43.6	3
0	33480	43.6	1
0	33481	43.6	2
0	33482	43.6	2
[...]
2	54822	73.420123385838	46107
2	54832	73.433963242093	46248
2	54868	73.461642954733	46389
2	54878	73.475482811119	46530
2	54888	73.489322667549	46671
2	54931	73.503162524023	46812
2	54948	73.517002380544	46953
2	54958	73.53084223711	47094
2	55004	73.558859701897	47235
2	55502	74.278370816102	47376
2	55512	74.292210827894	47517
2	55553	74.306050839689	47658
2	55563	74.319890851487	47799
2	55574	74.347570875092	47940
2	55600	74.361410886898	48081
2	55610	74.375250898708	48222
2	55620	74.38909091052	48363
2	55661	74.402930922335	48504
2	55671	74.416770934153	48645
2	55681	74.430610945974	48786
2	55729	74.478580890551	48927
2	55739	74.492420751517	49068
2	55781	74.520100473687	49209
2	55823	74.578268058567	49350
2	56294	75.278267747659	49491
2	56403	75.378372740979	49632
2	56410	75.392212752999	49773
2	56451	75.406052765022	49914
2	56461	75.419892777048	50055
2	56471	75.433732789077	50196
2	56798	75.928373717307	50337
2	56889	76.078549885084	50478
2	56899	76.09238980242	50619
2	57528	77.028373860823	50760
2	57538	77.042213860823	50901
2	57564	77.056053860823	51042
2	57759	77.32827020849	51183
2	57769	77.342110221758	51324
2	57795	77.355950235095	51465
2	58281	78.128373860823	51606
2	58291	78.142213860823	51747
2	58535	78.578273208395	51888
2	58545	78.592113227932	52029
2	58585	78.60595324754	52170
2	59051	79.232978622392	52311
2	59056	79.233261214208	52452
2	59070	79.247101212475	52593
2	59093	79.260941210698	52734
2	59103	79.27478120888	52875
2	59110	79.288621207018	53016
2	59177	79.31630120317	53157
2	59185	79.330141201183	53298
2	59195	79.333372942415	53439
2	59205	79.343981199155	53580
2	59233	79.361052791839	53721
2	59243	79.371661194978	53862
2	59253	79.374892716604	54003
2	59263	79.385501192828	54144
2	59270	79.388732641405	54285
2	59280	79.39934119064	54426
2	59320	79.413181188411	54567
2	59331	79.440861183837	54708
2	59637	79.87850599757	54849
2	60003	80.428500079708	54990
2	60511	81.178283211613	55131
2	60521	81.192123244832	55272
2	60565	81.20596327813	55413
2	60577	81.219803311505	55554
2	60777	81.428373860823	55695
2	60787	81.442213860823	55836
2	60813	81.456053860823	55977
2	60823	81.469893860823	56118
2	60833	81.483733860823	56259
2	60843	81.497573860823	56400
2	60892	81.511413860823	56541
2	60902	81.525253860823	56682
2	60912	81.539093860823	56823
2	60938	81.552933860823	56964
2	60948	81.566773860823	57105
2	60958	81.580613860823	57246
2	60968	81.594453860823	57387
2	61008	81.608293860823	57528
2	61018	81.622133860823	57669
2	61028	81.635973860823	57810
2	61038	81.649813860823	57951
2	61066	81.663653860823	58092
2	61073	81.677493860823	58233
2	61083	81.691333860823	58374
2	61125	81.705173860823	58515
2	61319	81.978373860823	58656
2	61517	82.278289081247	58797
2	61693	82.528373860823	58938
2	62041	83.078373860823	59079
2	62131	83.192312266481	59220
2	62171	83.206152201808	59361
2	62181	83.219992137173	59502
2	62191	83.233832072579	59643
2	62201	83.247672008023	59784
2	62227	83.261511943507	59925
2	62237	83.27535187903	60066
2	62326	83.378296032595	60207
2	62856	84.178373860823	60348
2	62866	84.192213860823	60489
2	62906	84.206053860823	60630
2	62916	84.219893860823	60771
2	62926	84.233733860823	60912
2	62936	84.247573860823	61053
2	62974	84.261413860823	61194
2	62984	84.275253860823	61335
2	62994	84.289093860823	61476
2	63034	84.302933860823	61617
2	63055	84.321506727712	61758
2	63065	84.335346666255	61899
2	63075	84.349186604837	62040
2	63180	84.478304170302	62181
2	63631	85.128750619517	62322
2	63641	85.142590632643	62463
2	63666	85.156430645893	62604
2	63684	85.184110672762	62745
2	63694	85.197950686383	62886
2	63734	85.211790700128	63027
2	63854	85.378452399075	63168
2	63864	85.392292340611	63309
2	64554	86.47844318679	63450
2	64688	86.67832453748	63591
2	64698	86.692164609993	63732
2	65254	87.478373860823	63873
2	65264	87.492213860823	64014
2	65304	87.506053860823	64155
2	65314	87.519893860823	64296
2	65324	87.533733860823	64437
2	65331	87.547573860823	64578
2	65366	87.561413860823	64719
2	65376	87.575253860823	64860
2	65386	87.589093860823	65001
2	65430	87.602933860823	65142
2	65454	87.616773860823	65283
2	65465	87.630613860823	65424
2	65475	87.644453860823	65565
2	65503	87.658293860823	65706
2	65513	87.672133860823	65847
2	65539	87.690688279914	65988
2	65582	87.704528227841	66129
2	65599	87.718368175806	66270
2	65865	88.12843028861	66411
2	66346	88.883294196523	66552
2	66356	88.897134291752	66693
2	66536	89.128373860823	66834
2	66546	89.142213860823	66975
2	66573	89.169893860823	67116
2	66583	89.183733860823	67257
2	66593	89.197573860823	67398
2	66644	89.211413860823	67539
2	66824	89.438456653603	67680
2	66850	89.452296734241	67821
2	67047	89.778418459175	67962
2	67057	89.792258412588	68103
2	67101	89.806098366036	68244
2	67595	90.678368368559	68385
2	67677	90.778373860823	68526
2	67687	90.792213860823	68667
2	67727	90.806053860823	68808
2	67738	90.819893860823	68949
2	67748	90.833733860823	69090
2	67758	90.847573860823	69231
2	68064	91.328373860823	69372
2	68293	91.628368368559	69513
2	68303	91.642208368559	69654
2	69874	94.128416889775	69795
2	69884	94.142256889775	69936
2	70512	95.178373860823	70077
2	70522	95.192213860823	70218
2	73167	99.642624000667	70359
2	73632	100.378373860823	70500
2	82624	115.428784000667	70641
2	83129	116.278373860823	70782
2	94524	134.978784000667	70923
2	95134	135.928373860823	71064
3	754	1.156852969044	141
3	759	1.15685536	282
3	764	1.156892807505	423
3	784	1.170692966851	564
3	789	1.17069536	705
3	794	1.170732807505	846
3	1690	2.256853243533	987
3	1695	2.25685536	1128
3	1700	2.256892395659	1269
3	2596	3.356854389323	1410
3	2601	3.35685536	1551
3	2606	3.356892732264	1692
3	3502	4.45685536	1833
3	3507	4.456856382318	1974
3	3512	4.456893722462	2115
3	4412	5.55685536	2256
3	4417	5.556859242339	2397
3	4422	5.55689408	2538
3	5318	6.65685536	2679
3	5323	6.656863031423	2820
3	5328	6.65689408	2961
3	5800	7.20685536	3102
3	5805	7.206865305056	3243
3	5810	7.20689408	3384
3	6706	8.30685536	3525
3	6711	8.306870694722	3666
3	6716	8.30689408	3807
3	7612	9.40685536	3948
3	7617	9.406877351083	4089
3	7622	9.40689408	4230
3	8522	10.50685536	4371
3	8527	10.50688548402	4512
3	8532	10.50689408	4653
3	9428	11.60685536	4794
3	9433	11.60689408	4935
3	9438	11.60689534358	5076
3	9894	12.15685536	5217
3	9899	12.15689408	5358
3	9904	12.156901007491	5499
3	10800	13.25685536	5640
3	10805	13.25689408	5781
3	10810	13.256913982238	5922
3	11680	14.35685536	6063
3	11681	14.35685536	6204
3	11761	14.478426725946	6345
3	12590	15.45685536	6486
3	12591	15.45685536	6627
3	12671	15.578463813105	6768
3	13464	16.55225408	6909
3	13474	16.55685536	7050
3	13562	16.678505982872	7191
3	14016	17.228528705417	7332
3	14378	17.65225408	7473
3	14388	17.65685536	7614
3	14844	18.20225408	7755
3	14854	18.20685536	7896
3	14931	18.328576285512	8037
3	15616	19.29259264	8178
3	15671	19.30685536	8319
3	15676	19.306984188915	8460
3	16070	19.85685536	8601
3	16492	20.39259264	8742
3	16544	20.40685536	8883
3	16589	20.478666859583	9024
3	17326	21.49259264	9165
3	17378	21.50685536	9306
3	17774	22.057052899571	9447
3	18164	22.59259264	9588
3	18216	22.60685536	9729
3	18250	22.62069536	9870
3	18629	23.14259264	10011
3	18667	23.15685536	10152
3	18693	23.178738830953	10293
3	18703	23.192578924859	10434
3	19468	24.252213669134	10575
3	19473	24.25221536	10716
3	20231	25.342533571721	10857
3	20241	25.34719392	10998
3	21038	26.442533478918	11139
3	21048	26.44719392	11280
3	21768	27.542533392179	11421
3	21773	27.54257408	11562
3	22083	28.028752599978	11703
3	22165	28.070272763137	11844
3	22572	28.642533312022	11985
3	22577	28.64257408	12126
3	22958	29.192533274561	12267
3	22968	29.19721408	12408
3	23420	29.775187737043	12549
3	23463	29.802867733542	12690
3	23815	30.29257408	12831
3	24225	30.847173173039	12972
3	24252	30.861013172263	13113
3	24258	30.861346845797	13254
3	24268	30.874853171488	13395
3	24280	30.889026825656	13536
3	24681	31.40223392	13677
3	25027	31.94253311555	13818
3	25053	31.956373114875	13959
3	25063	31.970213114201	14100
3	25408	32.492533089737	14241
3	25413	32.49257408	14382
3	26180	33.592533044437	14523
3	26185	33.59257408	14664
3	26566	34.142533025024	14805
3	26571	34.14257408	14946
3	27302	35.242532992844	15087
3	27307	35.24257408	15228
3	28025	36.342590959139	15369
3	28056	36.352212955596	15510
3	28746	37.442533010973	15651
3	28751	37.442570958829	15792
3	28971	37.788452045278	15933
3	29009	37.802291472371	16074
3	29016	37.816130920747	16215
3	29024	37.843809879132	16356
3	29047	37.857649388074	16497
3	29055	37.885328462895	16638
3	29589	38.542533284817	16779
3	29594	38.542579757025	16920
3	29624	38.556419954417	17061
3	29634	38.570260154174	17202
3	29644	38.58410035631	17343
3	29654	38.59794056084	17484
3	29695	38.611780767781	17625
3	29705	38.625620977147	17766
3	29864	38.892590611959	17907
3	29905	38.906430633286	18048
3	29913	38.934110667471	18189
3	29923	38.947950679922	18330
3	29949	38.96179068901	18471
3	29960	38.989470696303	18612
3	30003	39.003310694114	18753
3	30021	39.030990677093	18894
3	30537	39.642533813929	19035
3	30542	39.642610950985	19176
3	30572	39.656451401408	19317
3	30582	39.670291856102	19458
3	30592	39.684132315098	19599
3	30602	39.69797277843	19740
3	30643	39.71181324613	19881
3	30653	39.725653718233	20022
3	30663	39.739494194772	20163
3	30689	39.75333467578	20304
3	30819	39.978712698321	20445
3	30829	39.992552085697	20586
3	30874	40.006391463348	20727
3	30884	40.020230831345	20868
3	30894	40.034070189766	21009
3	31070	40.192534182907	21150
3	31451	40.742682595842	21291
3	31477	40.756523483563	21432
3	31487	40.770364377594	21573
3	31497	40.784205277929	21714
3	31507	40.798046184558	21855
3	31545	40.811887097471	21996
3	31855	41.292535144055	22137
3	31861	41.292740252186	22278
3	31903	41.306581362614	22419
3	32404	42.128462954295	22560
3	32414	42.142303697523	22701
3	32440	42.156144450411	22842
3	32450	42.169985212994	22983
3	32643	42.392535927515	23124
3	33004	42.93821365081	23265
3	33030	42.952053162806	23406
3	33040	42.965892684907	23547
3	33050	42.979732217113	23688
3	33060	42.993571759423	23829
3	33101	43.007411311834	23970
3	33409	43.488189392828	24111
3	33419	43.492535927515	24252
3	34134	44.592536651306	24393
3	34481	45.142537396138	24534
3	34802	45.692582069656	24675
3	34843	45.706422098415	24816
3	35123	46.178675724712	24957
3	35173	46.206355086304	25098
3	35238	46.242539102247	25239
3	35264	46.256379125594	25380
3	35274	46.270219148989	25521
3	35563	46.728648510058	25662
3	35573	46.74248815585	25803
3	36037	47.342541108961	25944
3	36197	47.578567495675	26085
3	36236	47.606247730446	26226
3	36248	47.647768083567	26367
3	36382	47.828588234117	26508
3	36867	48.45222345626	26649
3	37180	48.99259771886	26790
3	37221	49.006437791764	26931
3	37231	49.020277864897	27072
3	37241	49.03411793826	27213
3	37251	49.047958011853	27354
3	37277	49.061798085678	27495
3	37570	49.542601826049	27636
3	37836	49.992313771501	27777
3	37885	50.006153450963	27918
3	37985	50.092547569825	28059
3	38034	50.106387608012	28200
3	38056	50.12022764626	28341
3	38066	50.134067684568	28482
3	38076	50.147907722937	28623
3	38102	50.161747761367	28764
3	38112	50.175587799857	28905
3	38122	50.189427838409	29046
3	38339	50.528449126722	29187
3	38349	50.542288832086	29328
3	38464	50.642549134628	29469
3	38830	51.192550799095	29610
3	38835	51.192617467545	29751
3	38880	51.206457583451	29892
3	38890	51.220297699673	30033
3	38900	51.234137816213	30174
3	38910	51.247977933071	30315
3	38936	51.261818050247	30456
3	39165	51.638085373866	30597
3	39538	52.188066883602	30738
3	39665	52.29255444469	30879
3	39706	52.306394493368	31020
3	39716	52.320234542119	31161
3	39726	52.334074590942	31302
3	39736	52.347914639837	31443
3	39762	52.361754688804	31584
3	39772	52.375594737843	31725
3	40091	52.842639120198	31866
3	40117	52.856479278389	32007
3	40127	52.870319436973	32148
3	40364	53.278355897066	32289
3	40885	53.952240819105	32430
3	40895	53.966080877026	32571
3	40905	53.979920935029	32712
3	40915	53.993760993115	32853
3	41149	54.378331264256	32994
3	41264	54.492563142495	33135
3	41677	55.092549587644	33276
3	41725	55.120229798459	33417
3	41932	55.478312105194	33558
3	42050	55.59256828482	33699
3	42431	56.142570425538	33840
3	42436	56.142703138335	33981
3	42466	56.156543213361	34122
3	42477	56.184223363646	34263
3	42487	56.198063438905	34404
3	42528	56.211903514241	34545
3	42722	56.578298456202	34686
3	43242	57.242571106821	34827
3	43247	57.242711421551	34968
3	43274	57.256411115483	35109
3	43279	57.256551502731	35250
3	43290	57.270251124147	35391
3	43295	57.270391583988	35532
3	43306	57.284091132814	35673
3	43311	57.284231665322	35814
3	43321	57.297931141482	35955
3	43362	57.311771150153	36096
3	43509	57.528754179942	36237
3	43708	57.792715806904	36378
3	44093	58.342571802339	36519
3	44098	58.342720352124	36660
3	44124	58.356411811181	36801
3	44134	58.370251820026	36942
3	44144	58.384091828873	37083
3	44154	58.397931837723	37224
3	44505	58.892572155506	37365
3	44787	59.328277519854	37506
3	44797	59.342117483419	37647
3	44825	59.355957447125	37788
3	44936	59.442572512315	37929
3	45588	60.428272498387	38070
3	45703	60.542573236975	38211
3	46060	61.092745322343	38352
3	46107	61.106585422919	38493
3	46117	61.120425523554	38634
3	46127	61.134265624245	38775
3	46137	61.148105724994	38916
3	46163	61.161945825799	39057
3	46425	61.578750543959	39198
3	46517	61.642750715753	39339
3	46894	62.192574351999	39480
3	46899	62.192756218517	39621
3	46940	62.206414361496	39762
3	46950	62.220254370996	39903
3	46960	62.234094380497	40044
3	46970	62.247934390001	40185
3	46996	62.261774399508	40326
3	47006	62.275614409017	40467
3	47016	62.289454418528	40608
3	47057	62.303294428042	40749
3	47067	62.317134437558	40890
3	47368	62.742574731266	41031
3	47747	63.292575114377	41172
3	47752	63.292767495283	41313
3	48046	63.728268356761	41454
3	48056	63.742108367285	41595
3	48082	63.755948377994	41736
3	48181	63.842575501363	41877
3	48465	64.27827264	42018
3	48583	64.392575892253	42159
3	49185	65.37827264	42300
3	49286	65.482964286367	42441
3	49974	66.478411392882	42582
3	50071	66.578358337643	42723
3	50445	67.128359173277	42864
3	50699	67.57827264	43005
3	51070	68.12827264	43146
3	51160	68.228360869542	43287
3	51786	69.22827264	43428
3	51883	69.32836259956	43569
3	52437	70.17827264	43710
3	52447	70.19211264	43851
3	52490	70.20595264	43992
3	52512	70.21979264	44133
3	52522	70.23363264	44274
3	52532	70.24747264	44415
3	52561	70.26131264	44556
3	52707	70.428364363843	44697
3	53027	70.87827264	44838
3	53514	71.528366162903	44979
3	54044	72.37827264	45120
3	54054	72.39211264	45261
3	54247	72.628367997254	45402
3	54620	73.18794269853	45543
3	54762	73.378603817321	45684
3	54772	73.392443673452	45825
3	54815	73.406283529624	45966
3	54822	73.420123385838	46107
3	54832	73.433963242093	46248
3	54868	73.461642954733	46389
3	54878	73.475482811119	46530
3	54888	73.489322667549	46671
3	54931	73.503162524023	46812
3	54948	73.517002380544	46953
3	54958	73.53084223711	47094
3	55004	73.558859701897	47235
3	55502	74.278370816102	47376
3	55512	74.292210827894	47517
3	55553	74.306050839689	47658
3	55563	74.319890851487	47799
3	55574	74.347570875092	47940
3	55600	74.361410886898	48081
3	55610	74.375250898708	48222
3	55620	74.38909091052	48363
3	55661	74.402930922335	48504
3	55671	74.416770934153	48645
3	55681	74.430610945974	48786
3	55729	74.478580890551	48927
3	55739	74.492420751517	49068
3	55781	74.520100473687	49209
3	55823	74.578268058567	49350
3	56294	75.278267747659	49491
3	56403	75.378372740979	49632
3	56410	75.392212752999	49773
3	56451	75.406052765022	49914
3	56461	75.419892777048	50055
3	56471	75.433732789077	50196
3	56798	75.928373717307	50337
3	56889	76.078549885084	50478
3	56899	76.09238980242	50619
3	57528	77.028373860823	50760
3	57538	77.042213860823	50901
3	57564	77.056053860823	51042
3	57759	77.32827020849	51183
3	57769	77.342110221758	51324
3	57795	77.355950235095	51465
3	58281	78.128373860823	51606
3	58291	78.142213860823	51747
3	58535	78.578273208395	51888
3	58545	78.592113227932	52029
3	58585	78.60595324754	52170
3	59051	79.232978622392	52311
3	59056	79.233261214208	52452
3	59070	79.247101212475	52593
3	59093	79.260941210698	52734
3	59103	79.27478120888	52875
3	59110	79.288621207018	53016
3	59177	79.31630120317	53157
3	59185	79.330141201183	53298
3	59195	79.333372942415	53439
3	59205	79.343981199155	53580
3	59233	79.361052791839	53721
3	59243	79.371661194978	53862
3	59253	79.374892716604	54003
3	59263	79.385501192828	54144
3	59270	79.388732641405	54285
3	59280	79.39934119064	54426
3	59320	79.413181188411	54567
3	59331	79.440861183837	54708
3	59637	79.87850599757	54849
3	60003	80.428500079708	54990
3	60511	81.178283211613	55131
3	60521	81.192123244832	55272
3	60565	81.20596327813	55413
3	60577	81.219803311505	55554
3	60777	81.428373860823	55695
3	60787	81.442213860823	55836
3	60813	81.456053860823	55977
3	60823	81.469893860823	56118
3	60833	81.483733860823	56259
3	60843	81.497573860823	56400
3	60892	81.511413860823	56541
3	60902	81.525253860823	56682
3	60912	81.539093860823	56823
3	60938	81.552933860823	56964
3	60948	81.566773860823	57105
3	60958	81.580613860823	57246
3	60968	81.594453860823	57387
3	61008	81.608293860823	57528
3	61018	81.622133860823	57669
3	61028	81.635973860823	57810
3	61038	81.649813860823	57951
3	61066	81.663653860823	58092
3	61073	81.677493860823	58233
3	61083	81.691333860823	58374
3	61125	81.705173860823	58515
3	61319	81.978373860823	58656
3	61517	82.278289081247	58797
3	61693	82.528373860823	58938
3	62041	83.078373860823	59079
3	62131	83.192312266481	59220
3	62171	83.206152201808	59361
3	62181	83.219992137173	59502
3	62191	83.233832072579	59643
3	62201	83.247672008023	59784
3	62227	83.261511943507	59925
3	62237	83.27535187903	60066
3	62326	83.378296032595	60207
3	62856	84.178373860823	60348
3	62866	84.192213860823	60489
3	62906	84.206053860823	60630
3	62916	84.219893860823	60771
3	62926	84.233733860823	60912
3	62936	84.247573860823	61053
3	62974	84.261413860823	61194
3	62984	84.275253860823	61335
3	62994	84.289093860823	61476
3	63034	84.302933860823	61617
3	63055	84.321506727712	61758
3	63065	84.335346666255	61899
3	63075	84.349186604837	62040
3	63180	84.478304170302	62181
3	63631	85.128750619517	62322
3	63641	85.142590632643	62463
3	63666	85.156430645893	62604
3	63684	85.184110672762	62745
3	63694	85.197950686383	62886
3	63734	85.211790700128	63027
3	63854	85.378452399075	63168
3	63864	85.392292340611	63309
3	64554	86.47844318679	63450
3	64688	86.67832453748	63591
3	64698	86.692164609993	63732
3	65254	87.478373860823	63873
3	65264	87.492213860823	64014
3	65304	87.506053860823	64155
3	65314	87.519893860823	64296
3	65324	87.533733860823	64437
3	65331	87.547573860823	64578
3	65366	87.561413860823	64719
3	65376	87.575253860823	64860
3	65386	87.589093860823	65001
3	65430	87.602933860823	65142
3	65454	87.616773860823	65283
3	65465	87.630613860823	65424
3	65475	87.644453860823	65565
3	65503	87.658293860823	65706
3	65513	87.672133860823	65847
3	65539	87.690688279914	65988
3	65582	87.704528227841	66129
3	65599	87.718368175806	66270
3	65865	88.12843028861	66411
3	66346	88.883294196523	66552
3	66356	88.897134291752	66693
3	66536	89.128373860823	66834
3	66546	89.142213860823	66975
3	66573	89.169893860823	67116
3	66583	89.183733860823	67257
3	66593	89.197573860823	67398
3	66644	89.211413860823	67539
3	66824	89.438456653603	67680
3	66850	89.452296734241	67821
3	67047	89.778418459175	67962
3	67057	89.792258412588	68103
3	67101	89.806098366036	68244
3	67595	90.678368368559	68385
3	67677	90.778373860823	68526
3	67687	90.792213860823	68667
3	67727	90.806053860823	68808
3	67738	90.819893860823	68949
3	67748	90.833733860823	69090
3	67758	90.847573860823	69231
3	68064	91.328373860823	69372
3	68293	91.628368368559	69513
3	68303	91.642208368559	69654
3	69874	94.128416889775	69795
3	69884	94.142256889775	69936
3	70512	95.178373860823	70077
3	70522	95.192213860823	70218
3	73167	99.642624000667	70359
3	73632	100.378373860823	70500
3	82624	115.428784000667	70641
3	83129	116.278373860823	70782
3	94524	134.978784000667	70923
3	95134	135.928373860823	71064

