version 2
run C-0-20191105-15:10:43-10132
attr configname C
attr datetime 20191105-15:10:43
attr experiment C
attr inifile GwSimV2.ini
attr iterationvars ""
attr iterationvarsf ""
attr measurement ""
attr network NetworkTormV2
attr processid 10132
attr repetition 0
attr replication #0
attr resultdir results
attr runnumber 0
attr seedset 0
param **.mobility.traceFile "\"AllPaths/mobPaths/C.movements\""
param **.numNodes 11
param **.application.dataGenerationInterval 1s
param **.application.dataSizeInBytes 10
param **.application.ttl 999999s
param **application.nodesThatGen false
param **application.nodesGenMsg "\"\""
param **application.startMultipleMsg false
param **application.numMultipleMsg 100
param **application.hopsListSize 50
param **.application.endGeneratingMsg 99s
param **.routingLayer "\"RoutingLqeGw\""
param **.routing.maximumCacheSize 5000byte
param **.routing.maximumHopCount 25
param **.routing.useTTL false
param **.routing.waitBFsend 0.1
param **.routing.max_age 999999s
param **.routing.gateway_list "\"\""
param **.routing.actual_gateway "\"\""
param **.routing.gwCheckPeriod 5s
param **.neighboring.resetGPeriod 999s
param **.wirelessIfc.wirelessRange 40m
param **.numNodes 2
param **.application.usedRNG 1
param **.application.dataGenerationInterval 1s
param **.application.dataSizeInBytes 10
param **.application.ttl 999999s
param **application.destinationAddr "\"Wf:00:00:00:00:02\""
param **application.destinationBTAddr "\"Bt:00:00:00:00:02\""
param **application.nodesThatGen true
param **application.nodesGenMsg "\"0\""
param **application.startMultipleMsg true
param **application.numMultipleMsg 100
param **application.hopsListSize 50
param **.application.endGeneratingMsg 999999s
param **.routingLayer "\"RoutingLqeGw\""
param **.routing.maximumCacheSize 5000byte
param **.routing.maximumHopCount 25
param **.routing.useTTL false
param **.routing.waitBFsend 0.1
param **.routing.max_age 999999s
param **.routing.gateway_list "\"\""
param **.routing.actual_gateway "\"\""
param **.routing.gwCheckPeriod 5s
param **.neighboring.antiEntropyInterval 500ms
param **.neighboring.maximumRandomBackoffDuration 1s
param **.neighboring.delayPerDataMsg 0.1
param **neighboring.usedRNG 2
param **.neighboring.GWAddr "\"Wf:00:00:00:00:02\""
param **.neighboring.sendWifiFirst true
param **.neighboring.maxLengthGraph 20
param **.neighboring.max_age 999999s
param **.neighboring.max_absent_time 1s
param **.wirelessIfc.wirelessRange 40m
param **.wirelessIfc.neighbourScanInterval 50ms
param **.wirelessIfc.bandwidthBitRate 100000bps
param **.wirelessIfc.wirelessHeaderSize 32byte
param **.wirelessIfc.minSSI -90
param **.wirelessIfc.limitQueueTime 400ms
param **.wirelessIfc.my_limit_rate 0bps
param **.bluetoothIfc.wirelessRange 40m
param **.bluetoothIfc.neighbourScanInterval 100ms
param **.bluetoothIfc.bandwidthBitRate 100000bps
param **.bluetoothIfc.wirelessHeaderSize 16byte
param **.bluetoothIfc.minSSI -90
param **.mobilityType "\"BonnMotionMobility\""
param **.mobility.traceFile "\"paths/Moves2.movements\""
param **.mobility.is3D false
param **.mobility.nodeId -1

vector 0 NetworkTormV2 neighbourhoodSize:vector ETV
attr source neighbourhoodSize
vector 1 NetworkTormV2 deliveryRatio:vector ETV
attr source sum(totalDataBytesReceived)/sum(totalDataBytesReceivableByAllNodes)
vector 2 NetworkTormV2 dataBytesReceivedSum:vector ETV
attr source sum(dataBytesReceived)
vector 3 NetworkTormV2 totalBytesReceivedSum:vector ETV
attr source sum(totalBytesReceived)
0	34	0.05	3
0	35	0.05	5
0	36	0.05	3
0	37	0.05	5
0	38	0.05	8
0	39	0.05	5
0	40	0.05	3
0	41	0.05	5
0	42	0.05	3
0	43	0.05	1
0	44	0.05	1
0	134	0.1	3
0	136	0.1	5
0	138	0.1	3
0	140	0.1	5
0	142	0.1	8
0	144	0.1	5
0	146	0.1	3
0	148	0.1	5
0	150	0.1	3
0	152	0.1	1
0	154	0.1	1
0	158	0.1	3
0	159	0.1	5
0	160	0.1	3
0	161	0.1	5
0	162	0.1	8
0	163	0.1	5
0	164	0.1	3
0	165	0.1	5
0	166	0.1	3
0	167	0.1	1
0	168	0.1	1
0	290	0.15	3
0	291	0.15	5
0	292	0.15	3
0	293	0.15	5
0	294	0.15	8
0	295	0.15	5
0	296	0.15	3
0	297	0.15	5
0	298	0.15	3
0	299	0.15	1
0	300	0.15	1
0	389	0.2	3
0	390	0.2	5
0	391	0.2	3
0	392	0.2	5
0	393	0.2	8
0	394	0.2	5
0	395	0.2	3
0	396	0.2	5
0	397	0.2	3
0	398	0.2	1
0	399	0.2	1
0	403	0.2	3
0	404	0.2	5
0	405	0.2	3
0	406	0.2	5
0	407	0.2	8
0	408	0.2	5
0	409	0.2	3
0	410	0.2	5
0	411	0.2	3
0	412	0.2	1
0	413	0.2	1
0	524	0.25	3
0	525	0.25	5
0	526	0.25	3
0	527	0.25	5
0	528	0.25	8
0	529	0.25	5
0	530	0.25	3
0	531	0.25	5
0	532	0.25	3
0	533	0.25	1
0	534	0.25	1
0	623	0.3	3
0	624	0.3	5
0	625	0.3	3
0	626	0.3	5
0	627	0.3	8
0	628	0.3	5
0	629	0.3	3
0	630	0.3	5
0	631	0.3	3
0	632	0.3	1
0	633	0.3	1
0	637	0.3	3
0	638	0.3	5
0	639	0.3	3
0	640	0.3	5
0	641	0.3	8
0	642	0.3	5
0	643	0.3	3
0	644	0.3	5
0	645	0.3	3
0	646	0.3	1
0	647	0.3	1
0	758	0.35	3
0	759	0.35	5
0	760	0.35	3
0	761	0.35	5
0	762	0.35	8
0	763	0.35	5
0	764	0.35	3
0	765	0.35	5
0	766	0.35	3
0	767	0.35	1
0	768	0.35	1
0	857	0.4	3
0	858	0.4	5
0	859	0.4	3
0	860	0.4	5
0	861	0.4	8
0	862	0.4	5
0	863	0.4	3
0	864	0.4	5
0	865	0.4	3
0	866	0.4	1
0	867	0.4	1
0	871	0.4	3
0	872	0.4	5
0	873	0.4	3
0	874	0.4	5
0	875	0.4	8
0	876	0.4	5
0	877	0.4	3
0	878	0.4	5
0	879	0.4	3
0	880	0.4	1
0	881	0.4	1
0	992	0.45	3
0	993	0.45	5
0	994	0.45	3
0	995	0.45	5
0	996	0.45	8
0	997	0.45	5
0	998	0.45	3
0	999	0.45	5
0	1000	0.45	3
0	1001	0.45	1
0	1002	0.45	1
0	1091	0.5	3
0	1092	0.5	5
0	1093	0.5	3
0	1094	0.5	5
0	1095	0.5	8
0	1096	0.5	5
0	1097	0.5	3
0	1098	0.5	5
0	1099	0.5	3
0	1100	0.5	1
0	1101	0.5	1
0	1105	0.5	3
0	1106	0.5	5
0	1107	0.5	3
0	1108	0.5	5
0	1109	0.5	8
0	1110	0.5	5
0	1111	0.5	3
0	1112	0.5	5
0	1113	0.5	3
0	1114	0.5	1
0	1115	0.5	1
0	1226	0.55	3
0	1227	0.55	5
0	1228	0.55	3
0	1229	0.55	5
0	1230	0.55	8
0	1231	0.55	5
0	1232	0.55	3
0	1233	0.55	5
0	1234	0.55	3
0	1235	0.55	1
0	1236	0.55	1
0	1325	0.6	3
0	1326	0.6	5
0	1327	0.6	3
0	1328	0.6	5
0	1329	0.6	8
0	1330	0.6	5
0	1331	0.6	3
0	1332	0.6	5
0	1333	0.6	3
0	1334	0.6	1
0	1335	0.6	1
0	1339	0.6	3
0	1340	0.6	5
0	1341	0.6	3
0	1342	0.6	5
0	1343	0.6	8
0	1344	0.6	5
0	1345	0.6	3
0	1346	0.6	5
0	1347	0.6	3
0	1348	0.6	1
0	1349	0.6	1
0	1460	0.65	3
0	1461	0.65	5
0	1462	0.65	3
0	1463	0.65	5
0	1464	0.65	8
0	1465	0.65	5
0	1466	0.65	3
0	1467	0.65	5
0	1468	0.65	3
0	1469	0.65	1
0	1470	0.65	1
0	1559	0.7	3
0	1560	0.7	5
0	1561	0.7	3
0	1562	0.7	5
0	1563	0.7	8
0	1564	0.7	5
0	1565	0.7	3
0	1566	0.7	5
0	1567	0.7	3
0	1568	0.7	1
0	1569	0.7	1
0	1573	0.7	3
0	1574	0.7	5
0	1575	0.7	3
0	1576	0.7	5
0	1577	0.7	8
0	1578	0.7	5
0	1579	0.7	3
0	1580	0.7	5
0	1581	0.7	3
0	1582	0.7	1
0	1583	0.7	1
0	1694	0.75	3
0	1695	0.75	5
0	1696	0.75	3
0	1697	0.75	5
0	1698	0.75	8
0	1699	0.75	5
0	1700	0.75	3
0	1701	0.75	5
0	1702	0.75	3
0	1703	0.75	1
0	1704	0.75	1
0	1793	0.8	3
0	1794	0.8	5
0	1795	0.8	3
0	1796	0.8	5
0	1797	0.8	8
0	1798	0.8	5
0	1799	0.8	3
0	1800	0.8	5
0	1801	0.8	3
0	1802	0.8	1
0	1803	0.8	1
0	1807	0.8	3
0	1808	0.8	5
0	1809	0.8	3
0	1810	0.8	5
0	1811	0.8	8
0	1812	0.8	5
0	1813	0.8	3
0	1814	0.8	5
0	1815	0.8	3
0	1816	0.8	1
0	1817	0.8	1
0	1928	0.85	3
0	1929	0.85	5
0	1930	0.85	3
0	1931	0.85	5
0	1932	0.85	8
0	1933	0.85	5
0	1934	0.85	3
0	1935	0.85	5
0	1936	0.85	3
0	1937	0.85	1
0	1938	0.85	1
0	2027	0.9	3
0	2028	0.9	5
0	2029	0.9	3
0	2030	0.9	5
0	2031	0.9	8
0	2032	0.9	5
0	2033	0.9	3
0	2034	0.9	5
0	2035	0.9	3
0	2036	0.9	1
0	2037	0.9	1
0	2041	0.9	3
0	2042	0.9	5
0	2043	0.9	3
0	2044	0.9	5
0	2045	0.9	8
0	2046	0.9	5
0	2047	0.9	3
0	2048	0.9	5
0	2049	0.9	3
0	2050	0.9	1
0	2051	0.9	1
0	2162	0.95	3
0	2163	0.95	5
0	2164	0.95	3
0	2165	0.95	5
0	2166	0.95	8
0	2167	0.95	5
0	2168	0.95	3
0	2169	0.95	5
0	2170	0.95	3
0	2171	0.95	1
0	2172	0.95	1
0	2261	1	3
0	2262	1	5
0	2263	1	3
0	2264	1	5
0	2265	1	8
0	2266	1	5
0	2267	1	3
0	2268	1	5
0	2269	1	3
0	2270	1	1
0	2271	1	1
0	2275	1	3
0	2276	1	5
0	2277	1	3
0	2278	1	5
0	2279	1	8
0	2280	1	5
0	2281	1	3
0	2282	1	5
0	2283	1	3
0	2284	1	1
0	2285	1	1
0	2396	1.05	3
0	2397	1.05	5
0	2398	1.05	3
0	2399	1.05	5
0	2400	1.05	8
0	2401	1.05	5
0	2402	1.05	3
0	2403	1.05	5
0	2404	1.05	3
0	2405	1.05	1
0	2406	1.05	1
0	2506	1.1	3
0	2507	1.1	5
0	2508	1.1	3
0	2509	1.1	5
0	2510	1.1	8
0	2511	1.1	5
0	2512	1.1	3
0	2513	1.1	5
0	2514	1.1	3
0	2515	1.1	1
0	2516	1.1	1
0	2520	1.1	3
0	2521	1.1	5
0	2522	1.1	3
0	2523	1.1	5
0	2524	1.1	8
0	2525	1.1	5
0	2526	1.1	3
0	2527	1.1	5
0	2528	1.1	3
0	2529	1.1	1
0	2530	1.1	1
0	3102	1.15	3
0	3103	1.15	5
0	3104	1.15	3
0	3105	1.15	5
0	3106	1.15	8
0	3107	1.15	5
0	3108	1.15	3
0	3109	1.15	5
0	3110	1.15	3
0	3111	1.15	1
0	3112	1.15	1
0	3519	1.2	3
0	3520	1.2	5
0	3521	1.2	3
0	3522	1.2	5
0	3523	1.2	8
0	3524	1.2	5
0	3525	1.2	3
0	3526	1.2	5
0	3527	1.2	3
0	3528	1.2	1
0	3529	1.2	1
0	3533	1.2	3
0	3534	1.2	5
0	3535	1.2	3
0	3536	1.2	5
0	3537	1.2	8
0	3538	1.2	5
0	3539	1.2	3
0	3540	1.2	5
0	3541	1.2	3
0	3542	1.2	1
0	3543	1.2	1
0	3738	1.25	3
0	3739	1.25	5
0	3740	1.25	3
0	3741	1.25	5
0	3742	1.25	8
0	3743	1.25	5
0	3744	1.25	3
0	3745	1.25	5
0	3746	1.25	3
0	3747	1.25	1
0	3748	1.25	1
0	3855	1.3	3
0	3856	1.3	5
0	3857	1.3	3
0	3858	1.3	5
0	3859	1.3	8
0	3860	1.3	5
0	3861	1.3	3
0	3862	1.3	5
0	3863	1.3	3
0	3864	1.3	1
0	3865	1.3	1
0	3869	1.3	3
0	3870	1.3	5
0	3871	1.3	3
0	3872	1.3	5
0	3873	1.3	8
0	3874	1.3	5
0	3875	1.3	3
0	3876	1.3	5
0	3877	1.3	3
0	3878	1.3	1
0	3879	1.3	1
0	3990	1.35	3
0	3991	1.35	5
0	3992	1.35	3
0	3993	1.35	5
0	3994	1.35	8
0	3995	1.35	5
0	3996	1.35	3
0	3997	1.35	5
0	3998	1.35	3
0	3999	1.35	1
0	4000	1.35	1
0	4089	1.4	3
0	4090	1.4	5
0	4091	1.4	3
0	4092	1.4	5
0	4093	1.4	8
0	4094	1.4	5
0	4095	1.4	3
0	4096	1.4	5
0	4097	1.4	3
0	4098	1.4	1
0	4099	1.4	1
0	4103	1.4	3
0	4104	1.4	5
0	4105	1.4	3
0	4106	1.4	5
0	4107	1.4	8
0	4108	1.4	5
0	4109	1.4	3
0	4110	1.4	5
0	4111	1.4	3
0	4112	1.4	1
0	4113	1.4	1
0	4224	1.45	3
0	4225	1.45	5
0	4226	1.45	3
0	4227	1.45	5
0	4228	1.45	8
0	4229	1.45	5
0	4230	1.45	3
0	4231	1.45	5
0	4232	1.45	3
0	4233	1.45	1
0	4234	1.45	1
0	4323	1.5	3
0	4324	1.5	5
0	4325	1.5	3
0	4326	1.5	5
0	4327	1.5	8
0	4328	1.5	5
0	4329	1.5	3
0	4330	1.5	5
0	4331	1.5	3
0	4332	1.5	1
0	4333	1.5	1
0	4337	1.5	3
0	4338	1.5	5
0	4339	1.5	3
0	4340	1.5	5
0	4341	1.5	8
0	4342	1.5	5
0	4343	1.5	3
0	4344	1.5	5
0	4345	1.5	3
0	4346	1.5	1
0	4347	1.5	1
0	4458	1.55	3
0	4459	1.55	5
0	4460	1.55	3
0	4461	1.55	5
0	4462	1.55	8
0	4463	1.55	5
0	4464	1.55	3
0	4465	1.55	5
0	4466	1.55	3
0	4467	1.55	1
0	4468	1.55	1
0	4557	1.6	3
0	4558	1.6	5
0	4559	1.6	3
0	4560	1.6	5
0	4561	1.6	8
0	4562	1.6	5
0	4563	1.6	3
0	4564	1.6	5
0	4565	1.6	3
0	4566	1.6	1
0	4567	1.6	1
0	4571	1.6	3
0	4572	1.6	5
0	4573	1.6	3
0	4574	1.6	5
0	4575	1.6	8
0	4576	1.6	5
0	4577	1.6	3
0	4578	1.6	5
0	4579	1.6	3
0	4580	1.6	1
0	4581	1.6	1
0	4692	1.65	3
0	4693	1.65	5
0	4694	1.65	3
0	4695	1.65	5
0	4696	1.65	8
0	4697	1.65	5
0	4698	1.65	3
0	4699	1.65	5
0	4700	1.65	3
0	4701	1.65	1
0	4702	1.65	1
0	5209	1.7	3
0	5210	1.7	5
0	5211	1.7	3
0	5212	1.7	5
0	5213	1.7	8
0	5214	1.7	5
0	5215	1.7	3
0	5216	1.7	5
0	5217	1.7	3
0	5218	1.7	1
0	5219	1.7	1
0	5223	1.7	3
0	5224	1.7	5
0	5225	1.7	3
0	5226	1.7	5
0	5227	1.7	8
0	5228	1.7	5
0	5229	1.7	3
0	5230	1.7	5
0	5231	1.7	3
0	5232	1.7	1
0	5233	1.7	1
0	5602	1.75	3
0	5603	1.75	5
0	5604	1.75	3
0	5605	1.75	5
0	5606	1.75	8
0	5607	1.75	5
0	5608	1.75	3
0	5609	1.75	5
0	5610	1.75	3
0	5611	1.75	1
0	5612	1.75	1
0	5797	1.8	3
0	5798	1.8	5
0	5799	1.8	3
0	5800	1.8	5
0	5801	1.8	8
0	5802	1.8	5
0	5803	1.8	3
0	5804	1.8	5
0	5805	1.8	3
0	5806	1.8	1
0	5807	1.8	1
0	5811	1.8	3
0	5812	1.8	5
0	5813	1.8	3
0	5814	1.8	5
0	5815	1.8	8
0	5816	1.8	5
0	5817	1.8	3
0	5818	1.8	5
0	5819	1.8	3
0	5820	1.8	1
0	5821	1.8	1
0	5932	1.85	3
0	5933	1.85	5
0	5934	1.85	3
0	5935	1.85	5
0	5936	1.85	8
0	5937	1.85	5
0	5938	1.85	3
0	5939	1.85	5
0	5940	1.85	3
0	5941	1.85	1
0	5942	1.85	1
0	6036	1.9	3
0	6037	1.9	5
0	6038	1.9	3
0	6039	1.9	5
0	6040	1.9	8
0	6041	1.9	5
0	6042	1.9	3
0	6043	1.9	5
0	6044	1.9	3
0	6045	1.9	1
0	6046	1.9	1
0	6050	1.9	3
0	6051	1.9	5
0	6052	1.9	3
0	6053	1.9	5
0	6054	1.9	8
0	6055	1.9	5
0	6056	1.9	3
0	6057	1.9	5
0	6058	1.9	3
0	6059	1.9	1
0	6060	1.9	1
0	6171	1.95	3
0	6172	1.95	5
0	6173	1.95	3
0	6174	1.95	5
0	6175	1.95	8
0	6176	1.95	5
0	6177	1.95	3
0	6178	1.95	5
0	6179	1.95	3
0	6180	1.95	1
0	6181	1.95	1
0	6270	2	3
0	6271	2	5
0	6272	2	3
0	6273	2	5
0	6274	2	8
0	6275	2	5
0	6276	2	3
0	6277	2	5
0	6278	2	3
0	6279	2	1
0	6280	2	1
0	6284	2	3
0	6285	2	5
0	6286	2	3
0	6287	2	5
0	6288	2	8
0	6289	2	5
0	6290	2	3
0	6291	2	5
0	6292	2	3
0	6293	2	1
0	6294	2	1
0	6405	2.05	3
0	6406	2.05	5
0	6407	2.05	3
0	6408	2.05	5
0	6409	2.05	8
0	6410	2.05	5
0	6411	2.05	3
0	6412	2.05	5
0	6413	2.05	3
0	6414	2.05	1
0	6415	2.05	1
0	6515	2.1	3
0	6516	2.1	5
0	6517	2.1	3
0	6518	2.1	5
0	6519	2.1	8
0	6520	2.1	5
0	6521	2.1	3
0	6522	2.1	5
0	6523	2.1	3
0	6524	2.1	1
0	6525	2.1	1
0	6529	2.1	3
0	6530	2.1	5
0	6531	2.1	3
0	6532	2.1	5
0	6533	2.1	8
0	6534	2.1	5
0	6535	2.1	3
0	6536	2.1	5
0	6537	2.1	3
0	6538	2.1	1
0	6539	2.1	1
0	6661	2.15	3
0	6662	2.15	5
0	6663	2.15	3
0	6664	2.15	5
0	6665	2.15	8
0	6666	2.15	5
0	6667	2.15	3
0	6668	2.15	5
0	6669	2.15	3
0	6670	2.15	1
0	6671	2.15	1
0	6760	2.2	3
0	6761	2.2	5
0	6762	2.2	3
0	6763	2.2	5
0	6764	2.2	8
0	6765	2.2	5
0	6766	2.2	3
0	6767	2.2	5
0	6768	2.2	3
0	6769	2.2	1
0	6770	2.2	1
0	6774	2.2	3
0	6775	2.2	5
0	6776	2.2	3
0	6777	2.2	5
0	6778	2.2	8
0	6779	2.2	5
0	6780	2.2	3
0	6781	2.2	5
0	6782	2.2	3
0	6783	2.2	1
0	6784	2.2	1
0	7330	2.25	3
0	7331	2.25	5
0	7332	2.25	3
0	7333	2.25	5
0	7334	2.25	8
0	7335	2.25	5
0	7336	2.25	3
0	7337	2.25	5
0	7338	2.25	3
0	7339	2.25	1
0	7340	2.25	1
0	7660	2.3	3
0	7661	2.3	5
0	7662	2.3	3
0	7663	2.3	5
0	7664	2.3	8
0	7665	2.3	5
0	7666	2.3	3
0	7667	2.3	5
0	7668	2.3	3
0	7669	2.3	1
0	7670	2.3	1
0	7674	2.3	3
0	7675	2.3	5
0	7676	2.3	3
0	7677	2.3	5
0	7678	2.3	8
0	7679	2.3	5
0	7680	2.3	3
0	7681	2.3	5
0	7682	2.3	3
0	7683	2.3	1
0	7684	2.3	1
0	7816	2.35	3
0	7817	2.35	5
0	7818	2.35	3
0	7819	2.35	5
0	7820	2.35	8
0	7821	2.35	5
0	7822	2.35	3
0	7823	2.35	5
0	7824	2.35	3
0	7825	2.35	1
0	7826	2.35	1
0	7972	2.4	3
0	7973	2.4	5
0	7974	2.4	3
0	7975	2.4	5
0	7976	2.4	8
0	7977	2.4	5
0	7978	2.4	3
0	7979	2.4	5
0	7980	2.4	3
0	7981	2.4	1
0	7982	2.4	1
0	7986	2.4	3
0	7987	2.4	5
0	7988	2.4	3
0	7989	2.4	5
0	7990	2.4	8
0	7991	2.4	5
0	7992	2.4	3
0	7993	2.4	5
0	7994	2.4	3
0	7995	2.4	1
0	7996	2.4	1
0	8107	2.45	3
0	8108	2.45	5
0	8109	2.45	3
0	8110	2.45	5
0	8111	2.45	8
0	8112	2.45	5
0	8113	2.45	3
0	8114	2.45	5
0	8115	2.45	3
0	8116	2.45	1
0	8117	2.45	1
0	8206	2.5	3
0	8207	2.5	5
0	8208	2.5	3
0	8209	2.5	5
0	8210	2.5	8
0	8211	2.5	5
0	8212	2.5	3
0	8213	2.5	5
0	8214	2.5	3
0	8215	2.5	1
0	8216	2.5	1
0	8220	2.5	3
0	8221	2.5	5
0	8222	2.5	3
0	8223	2.5	5
0	8224	2.5	8
0	8225	2.5	5
0	8226	2.5	3
0	8227	2.5	5
0	8228	2.5	3
0	8229	2.5	1
0	8230	2.5	1
0	8341	2.55	3
0	8342	2.55	5
0	8343	2.55	3
0	8344	2.55	5
0	8345	2.55	8
0	8346	2.55	5
0	8347	2.55	3
0	8348	2.55	5
0	8349	2.55	3
0	8350	2.55	1
0	8351	2.55	1
0	8440	2.6	3
0	8441	2.6	5
0	8442	2.6	3
0	8443	2.6	5
0	8444	2.6	8
0	8445	2.6	5
0	8446	2.6	3
0	8447	2.6	5
0	8448	2.6	3
0	8449	2.6	1
0	8450	2.6	1
0	8454	2.6	3
0	8455	2.6	5
0	8456	2.6	3
0	8457	2.6	5
0	8458	2.6	8
0	8459	2.6	5
0	8460	2.6	3
0	8461	2.6	5
0	8462	2.6	3
0	8463	2.6	1
0	8464	2.6	1
0	8575	2.65	3
0	8576	2.65	5
0	8577	2.65	3
0	8578	2.65	5
0	8579	2.65	8
0	8580	2.65	5
0	8581	2.65	3
0	8582	2.65	5
0	8583	2.65	3
0	8584	2.65	1
0	8585	2.65	1
0	8674	2.7	3
0	8675	2.7	5
0	8676	2.7	3
0	8677	2.7	5
0	8678	2.7	8
0	8679	2.7	5
0	8680	2.7	3
0	8681	2.7	5
0	8682	2.7	3
0	8683	2.7	1
0	8684	2.7	1
0	8688	2.7	3
0	8689	2.7	5
0	8690	2.7	3
0	8691	2.7	5
0	8692	2.7	8
0	8693	2.7	5
0	8694	2.7	3
0	8695	2.7	5
0	8696	2.7	3
0	8697	2.7	1
0	8698	2.7	1
0	8872	2.75	3
0	8873	2.75	5
0	8874	2.75	3
0	8875	2.75	5
0	8876	2.75	8
0	8877	2.75	5
0	8878	2.75	3
0	8879	2.75	5
0	8880	2.75	3
0	8881	2.75	1
0	8882	2.75	1
0	9388	2.8	3
0	9389	2.8	5
0	9390	2.8	3
0	9391	2.8	5
0	9392	2.8	8
0	9393	2.8	5
0	9394	2.8	3
0	9395	2.8	5
0	9396	2.8	3
0	9397	2.8	1
0	9398	2.8	1
0	9402	2.8	3
0	9403	2.8	5
0	9404	2.8	3
0	9405	2.8	5
0	9406	2.8	8
0	9407	2.8	5
0	9408	2.8	3
0	9409	2.8	5
0	9410	2.8	3
0	9411	2.8	1
0	9412	2.8	1
0	9748	2.85	3
0	9749	2.85	5
0	9750	2.85	3
0	9751	2.85	5
0	9752	2.85	8
0	9753	2.85	5
0	9754	2.85	3
0	9755	2.85	5
0	9756	2.85	3
0	9757	2.85	1
0	9758	2.85	1
0	9852	2.9	3
0	9853	2.9	5
0	9854	2.9	3
0	9855	2.9	5
0	9856	2.9	8
0	9857	2.9	5
0	9858	2.9	3
0	9859	2.9	5
0	9860	2.9	3
0	9861	2.9	1
0	9862	2.9	1
0	9866	2.9	3
0	9867	2.9	5
0	9868	2.9	3
0	9869	2.9	5
0	9870	2.9	8
0	9871	2.9	5
0	9872	2.9	3
0	9873	2.9	5
0	9874	2.9	3
0	9875	2.9	1
0	9876	2.9	1
0	10025	2.95	3
0	10026	2.95	5
0	10027	2.95	3
0	10028	2.95	5
0	10029	2.95	8
0	10030	2.95	5
0	10031	2.95	3
0	10032	2.95	5
0	10033	2.95	3
0	10034	2.95	1
0	10035	2.95	1
0	10124	3	3
0	10125	3	5
0	10126	3	3
0	10127	3	5
0	10128	3	8
0	10129	3	5
0	10130	3	3
0	10131	3	5
0	10132	3	3
0	10133	3	1
0	10134	3	1
0	10138	3	3
0	10139	3	5
0	10140	3	3
0	10141	3	5
0	10142	3	8
0	10143	3	5
0	10144	3	3
0	10145	3	5
0	10146	3	3
0	10147	3	1
0	10148	3	1
0	10259	3.05	3
0	10260	3.05	5
0	10261	3.05	3
0	10262	3.05	5
0	10263	3.05	8
0	10264	3.05	5
0	10265	3.05	3
0	10266	3.05	5
0	10267	3.05	3
0	10268	3.05	1
0	10269	3.05	1
0	10369	3.1	3
0	10370	3.1	5
0	10371	3.1	3
0	10372	3.1	5
0	10373	3.1	8
0	10374	3.1	5
0	10375	3.1	3
0	10376	3.1	5
0	10377	3.1	3
0	10378	3.1	1
0	10379	3.1	1
0	10383	3.1	3
0	10384	3.1	5
0	10385	3.1	3
0	10386	3.1	5
0	10387	3.1	8
0	10388	3.1	5
0	10389	3.1	3
0	10390	3.1	5
0	10391	3.1	3
0	10392	3.1	1
0	10393	3.1	1
0	10515	3.15	3
0	10516	3.15	5
0	10517	3.15	3
0	10518	3.15	5
0	10519	3.15	8
0	10520	3.15	5
0	10521	3.15	3
0	10522	3.15	5
0	10523	3.15	3
0	10524	3.15	1
0	10525	3.15	1
0	10614	3.2	3
0	10615	3.2	5
0	10616	3.2	3
0	10617	3.2	5
0	10618	3.2	8
0	10619	3.2	5
0	10620	3.2	3
0	10621	3.2	5
0	10622	3.2	3
0	10623	3.2	1
0	10624	3.2	1
0	10628	3.2	3
0	10629	3.2	5
0	10630	3.2	3
0	10631	3.2	5
0	10632	3.2	8
0	10633	3.2	5
0	10634	3.2	3
0	10635	3.2	5
0	10636	3.2	3
0	10637	3.2	1
0	10638	3.2	1
0	10749	3.25	3
0	10750	3.25	5
0	10751	3.25	3
0	10752	3.25	5
0	10753	3.25	8
0	10754	3.25	5
0	10755	3.25	3
0	10756	3.25	5
0	10757	3.25	3
0	10758	3.25	1
0	10759	3.25	1
0	10893	3.3	3
0	10894	3.3	5
0	10895	3.3	3
0	10896	3.3	5
0	10897	3.3	8
0	10898	3.3	5
0	10899	3.3	3
0	10900	3.3	5
0	10901	3.3	3
0	10902	3.3	1
0	10903	3.3	1
0	10907	3.3	3
0	10908	3.3	5
0	10909	3.3	3
0	10910	3.3	5
0	10911	3.3	8
0	10912	3.3	5
0	10913	3.3	3
0	10914	3.3	5
0	10915	3.3	3
0	10916	3.3	1
0	10917	3.3	1
0	11483	3.35	3
0	11484	3.35	5
0	11485	3.35	3
0	11486	3.35	5
0	11487	3.35	8
0	11488	3.35	5
0	11489	3.35	3
0	11490	3.35	5
0	11491	3.35	3
0	11492	3.35	1
0	11493	3.35	1
0	11690	3.4	3
0	11691	3.4	5
0	11692	3.4	3
0	11693	3.4	5
0	11694	3.4	8
0	11695	3.4	5
0	11696	3.4	3
0	11697	3.4	5
0	11698	3.4	3
0	11699	3.4	1
0	11700	3.4	1
0	11704	3.4	3
0	11705	3.4	5
0	11706	3.4	3
0	11707	3.4	5
0	11708	3.4	8
0	11709	3.4	5
0	11710	3.4	3
0	11711	3.4	5
0	11712	3.4	3
0	11713	3.4	1
0	11714	3.4	1
0	11848	3.45	3
0	11849	3.45	5
0	11850	3.45	3
0	11851	3.45	5
0	11852	3.45	8
0	11853	3.45	5
0	11854	3.45	3
0	11855	3.45	5
0	11856	3.45	3
0	11857	3.45	1
0	11858	3.45	1
0	12016	3.5	3
0	12017	3.5	5
0	12018	3.5	3
0	12019	3.5	5
0	12020	3.5	8
0	12021	3.5	5
0	12022	3.5	3
0	12023	3.5	5
0	12024	3.5	3
0	12025	3.5	1
0	12026	3.5	1
0	12030	3.5	3
0	12031	3.5	5
0	12032	3.5	3
0	12033	3.5	5
0	12034	3.5	8
0	12035	3.5	5
0	12036	3.5	3
0	12037	3.5	5
0	12038	3.5	3
0	12039	3.5	1
0	12040	3.5	1
0	12151	3.55	3
0	12152	3.55	5
0	12153	3.55	3
0	12154	3.55	5
0	12155	3.55	8
0	12156	3.55	5
0	12157	3.55	3
0	12158	3.55	5
0	12159	3.55	3
0	12160	3.55	1
0	12161	3.55	1
0	12250	3.6	3
0	12251	3.6	5
0	12252	3.6	3
0	12253	3.6	5
0	12254	3.6	8
0	12255	3.6	5
0	12256	3.6	3
0	12257	3.6	5
0	12258	3.6	3
0	12259	3.6	1
0	12260	3.6	1
0	12264	3.6	3
0	12265	3.6	5
0	12266	3.6	3
0	12267	3.6	5
0	12268	3.6	8
0	12269	3.6	5
0	12270	3.6	3
0	12271	3.6	5
0	12272	3.6	3
0	12273	3.6	1
0	12274	3.6	1
0	12385	3.65	3
0	12386	3.65	5
0	12387	3.65	3
0	12388	3.65	5
0	12389	3.65	8
0	12390	3.65	5
0	12391	3.65	3
0	12392	3.65	5
0	12393	3.65	3
0	12394	3.65	1
0	12395	3.65	1
0	12484	3.7	3
0	12485	3.7	5
0	12486	3.7	3
0	12487	3.7	5
0	12488	3.7	8
0	12489	3.7	5
0	12490	3.7	3
0	12491	3.7	5
0	12492	3.7	3
0	12493	3.7	1
0	12494	3.7	1
0	12498	3.7	3
0	12499	3.7	5
0	12500	3.7	3
0	12501	3.7	5
0	12502	3.7	8
0	12503	3.7	5
0	12504	3.7	3
0	12505	3.7	5
0	12506	3.7	3
0	12507	3.7	1
0	12508	3.7	1
0	12619	3.75	3
0	12620	3.75	5
0	12621	3.75	3
0	12622	3.75	5
0	12623	3.75	8
0	12624	3.75	5
0	12625	3.75	3
0	12626	3.75	5
0	12627	3.75	3
0	12628	3.75	1
0	12629	3.75	1
0	12718	3.8	3
0	12719	3.8	5
0	12720	3.8	3
0	12721	3.8	5
0	12722	3.8	8
0	12723	3.8	5
0	12724	3.8	3
0	12725	3.8	5
0	12726	3.8	3
0	12727	3.8	1
0	12728	3.8	1
0	12732	3.8	3
0	12733	3.8	5
0	12734	3.8	3
0	12735	3.8	5
0	12736	3.8	8
0	12737	3.8	5
0	12738	3.8	3
0	12739	3.8	5
0	12740	3.8	3
0	12741	3.8	1
0	12742	3.8	1
0	12903	3.85	3
0	12904	3.85	5
0	12905	3.85	3
0	12906	3.85	5
0	12907	3.85	8
0	12908	3.85	5
0	12909	3.85	3
0	12910	3.85	5
0	12911	3.85	3
0	12912	3.85	1
0	12913	3.85	1
0	13454	3.9	3
0	13455	3.9	5
0	13456	3.9	3
0	13457	3.9	5
0	13458	3.9	8
0	13459	3.9	5
0	13460	3.9	3
0	13461	3.9	5
0	13462	3.9	3
0	13463	3.9	1
0	13464	3.9	1
0	13468	3.9	3
0	13469	3.9	5
0	13470	3.9	3
0	13471	3.9	5
0	13472	3.9	8
0	13473	3.9	5
0	13474	3.9	3
0	13475	3.9	5
0	13476	3.9	3
0	13477	3.9	1
0	13478	3.9	1
0	13688	3.95	3
0	13689	3.95	5
0	13690	3.95	3
0	13691	3.95	5
0	13692	3.95	8
0	13693	3.95	5
0	13694	3.95	3
0	13695	3.95	5
0	13696	3.95	3
0	13697	3.95	1
0	13698	3.95	1
0	13810	4	3
0	13811	4	5
0	13812	4	3
0	13813	4	5
0	13814	4	8
0	13815	4	5
0	13816	4	3
0	13817	4	5
0	13818	4	3
0	13819	4	1
0	13820	4	1
0	13824	4	3
0	13825	4	5
0	13826	4	3
0	13827	4	5
0	13828	4	8
0	13829	4	5
0	13830	4	3
0	13831	4	5
0	13832	4	3
0	13833	4	1
0	13834	4	1
0	13996	4.05	3
0	13997	4.05	5
0	13998	4.05	3
0	13999	4.05	5
0	14000	4.05	8
0	14001	4.05	5
0	14002	4.05	3
0	14003	4.05	5
0	14004	4.05	3
0	14005	4.05	1
0	14006	4.05	1
0	14106	4.1	3
0	14107	4.1	5
0	14108	4.1	3
0	14109	4.1	5
0	14110	4.1	8
0	14111	4.1	5
0	14112	4.1	3
0	14113	4.1	5
0	14114	4.1	3
0	14115	4.1	1
0	14116	4.1	1
0	14120	4.1	3
0	14121	4.1	5
0	14122	4.1	3
0	14123	4.1	5
0	14124	4.1	8
0	14125	4.1	5
0	14126	4.1	3
0	14127	4.1	5
0	14128	4.1	3
0	14129	4.1	1
0	14130	4.1	1
0	14252	4.15	3
0	14253	4.15	5
0	14254	4.15	3
0	14255	4.15	5
0	14256	4.15	8
0	14257	4.15	5
0	14258	4.15	3
0	14259	4.15	5
0	14260	4.15	3
0	14261	4.15	1
0	14262	4.15	1
0	14351	4.2	3
0	14352	4.2	5
0	14353	4.2	3
0	14354	4.2	5
0	14355	4.2	8
0	14356	4.2	5
0	14357	4.2	3
0	14358	4.2	5
0	14359	4.2	3
0	14360	4.2	1
0	14361	4.2	1
0	14365	4.2	3
0	14366	4.2	5
0	14367	4.2	3
0	14368	4.2	5
0	14369	4.2	8
0	14370	4.2	5
0	14371	4.2	3
0	14372	4.2	5
0	14373	4.2	3
0	14374	4.2	1
0	14375	4.2	1
0	14486	4.25	3
0	14487	4.25	5
0	14488	4.25	3
0	14489	4.25	5
0	14490	4.25	8
0	14491	4.25	5
0	14492	4.25	3
0	14493	4.25	5
0	14494	4.25	3
0	14495	4.25	1
0	14496	4.25	1
0	14585	4.3	3
0	14586	4.3	5
0	14587	4.3	3
0	14588	4.3	5
0	14589	4.3	8
0	14590	4.3	5
0	14591	4.3	3
0	14592	4.3	5
0	14593	4.3	3
0	14594	4.3	1
0	14595	4.3	1
0	14599	4.3	3
0	14600	4.3	5
0	14601	4.3	3
0	14602	4.3	5
0	14603	4.3	8
0	14604	4.3	5
0	14605	4.3	3
0	14606	4.3	5
0	14607	4.3	3
0	14608	4.3	1
0	14609	4.3	1
0	14743	4.35	3
0	14744	4.35	5
0	14745	4.35	3
0	14746	4.35	5
0	14747	4.35	8
0	14748	4.35	5
0	14749	4.35	3
0	14750	4.35	5
0	14751	4.35	3
0	14752	4.35	1
0	14753	4.35	1
0	14927	4.4	3
0	14928	4.4	5
0	14929	4.4	3
0	14930	4.4	5
0	14931	4.4	8
0	14932	4.4	5
0	14933	4.4	3
0	14934	4.4	5
0	14935	4.4	3
0	14936	4.4	1
0	14937	4.4	1
0	14941	4.4	3
0	14942	4.4	5
0	14943	4.4	3
0	14944	4.4	5
0	14945	4.4	8
0	14946	4.4	5
0	14947	4.4	3
0	14948	4.4	5
0	14949	4.4	3
0	14950	4.4	1
0	14951	4.4	1
0	15468	4.45	3
0	15469	4.45	5
0	15470	4.45	3
0	15471	4.45	5
0	15472	4.45	8
0	15473	4.45	5
0	15474	4.45	3
0	15475	4.45	5
0	15476	4.45	3
0	15477	4.45	1
0	15478	4.45	1
0	15670	4.5	3
0	15671	4.5	5
0	15672	4.5	3
0	15673	4.5	5
0	15674	4.5	8
0	15675	4.5	5
0	15676	4.5	3
0	15677	4.5	5
0	15678	4.5	3
0	15679	4.5	1
0	15680	4.5	1
0	15684	4.5	3
0	15685	4.5	5
0	15686	4.5	3
0	15687	4.5	5
0	15688	4.5	8
0	15689	4.5	5
0	15690	4.5	3
0	15691	4.5	5
0	15692	4.5	3
0	15693	4.5	1
0	15694	4.5	1
0	15897	4.55	3
0	15898	4.55	5
0	15899	4.55	3
0	15900	4.55	5
0	15901	4.55	8
0	15902	4.55	5
0	15903	4.55	3
0	15904	4.55	5
0	15905	4.55	3
0	15906	4.55	1
0	15907	4.55	1
0	16047	4.6	3
0	16048	4.6	5
0	16049	4.6	3
0	16050	4.6	5
0	16051	4.6	8
0	16052	4.6	5
0	16053	4.6	3
0	16054	4.6	5
0	16055	4.6	3
0	16056	4.6	1
0	16057	4.6	1
0	16061	4.6	3
0	16062	4.6	5
0	16063	4.6	3
0	16064	4.6	5
0	16065	4.6	8
0	16066	4.6	5
0	16067	4.6	3
0	16068	4.6	5
0	16069	4.6	3
0	16070	4.6	1
0	16071	4.6	1
0	16182	4.65	3
0	16183	4.65	5
0	16184	4.65	3
0	16185	4.65	5
0	16186	4.65	8
0	16187	4.65	5
0	16188	4.65	3
0	16189	4.65	5
0	16190	4.65	3
0	16191	4.65	1
0	16192	4.65	1
0	16281	4.7	3
0	16282	4.7	5
0	16283	4.7	3
0	16284	4.7	5
0	16285	4.7	8
0	16286	4.7	5
0	16287	4.7	3
0	16288	4.7	5
0	16289	4.7	3
0	16290	4.7	1
0	16291	4.7	1
0	16295	4.7	3
0	16296	4.7	5
0	16297	4.7	3
0	16298	4.7	5
0	16299	4.7	8
0	16300	4.7	5
0	16301	4.7	3
0	16302	4.7	5
0	16303	4.7	3
0	16304	4.7	1
0	16305	4.7	1
0	16416	4.75	3
0	16417	4.75	5
0	16418	4.75	3
0	16419	4.75	5
0	16420	4.75	8
0	16421	4.75	5
0	16422	4.75	3
0	16423	4.75	5
0	16424	4.75	3
0	16425	4.75	1
0	16426	4.75	1
0	16515	4.8	3
0	16516	4.8	5
0	16517	4.8	3
0	16518	4.8	5
0	16519	4.8	8
0	16520	4.8	5
0	16521	4.8	3
0	16522	4.8	5
0	16523	4.8	3
0	16524	4.8	1
0	16525	4.8	1
0	16529	4.8	3
0	16530	4.8	5
0	16531	4.8	3
0	16532	4.8	5
0	16533	4.8	8
0	16534	4.8	5
0	16535	4.8	3
0	16536	4.8	5
0	16537	4.8	3
0	16538	4.8	1
0	16539	4.8	1
0	16650	4.85	3
0	16651	4.85	5
0	16652	4.85	3
0	16653	4.85	5
0	16654	4.85	8
0	16655	4.85	5
0	16656	4.85	3
0	16657	4.85	5
0	16658	4.85	3
0	16659	4.85	1
0	16660	4.85	1
0	16759	4.9	3
0	16760	4.9	5
0	16761	4.9	3
0	16762	4.9	5
0	16763	4.9	8
0	16764	4.9	5
0	16765	4.9	3
0	16766	4.9	5
0	16767	4.9	3
0	16768	4.9	1
0	16769	4.9	1
0	16773	4.9	3
0	16774	4.9	5
0	16775	4.9	3
0	16776	4.9	5
0	16777	4.9	8
0	16778	4.9	5
0	16779	4.9	3
0	16780	4.9	5
0	16781	4.9	3
0	16782	4.9	1
0	16783	4.9	1
0	16980	4.95	3
0	16981	4.95	5
0	16982	4.95	3
0	16983	4.95	5
0	16984	4.95	8
0	16985	4.95	5
0	16986	4.95	3
0	16987	4.95	5
0	16988	4.95	3
0	16989	4.95	1
0	16990	4.95	1
0	17502	5	3
0	17503	5	5
0	17504	5	3
0	17505	5	5
0	17506	5	8
0	17507	5	5
0	17508	5	3
0	17509	5	5
0	17510	5	3
0	17511	5	1
0	17512	5	1
0	17516	5	3
0	17517	5	5
0	17518	5	3
0	17519	5	5
0	17520	5	8
0	17521	5	5
0	17522	5	3
0	17523	5	5
0	17524	5	3
0	17525	5	1
0	17526	5	1
0	17679	5.05	3
0	17680	5.05	5
0	17681	5.05	3
0	17682	5.05	5
0	17683	5.05	8
0	17684	5.05	5
0	17685	5.05	3
0	17686	5.05	5
0	17687	5.05	3
0	17688	5.05	1
0	17689	5.05	1
0	17881	5.1	3
0	17882	5.1	5
0	17883	5.1	3
0	17884	5.1	5
0	17885	5.1	8
0	17886	5.1	5
0	17887	5.1	3
0	17888	5.1	5
0	17889	5.1	3
0	17890	5.1	1
0	17891	5.1	1
0	17895	5.1	3
0	17896	5.1	5
0	17897	5.1	3
0	17898	5.1	5
0	17899	5.1	8
0	17900	5.1	5
0	17901	5.1	3
0	17902	5.1	5
0	17903	5.1	3
0	17904	5.1	1
0	17905	5.1	1
0	18119	5.15	3
0	18120	5.15	5
0	18121	5.15	3
0	18122	5.15	5
0	18123	5.15	8
0	18124	5.15	5
0	18125	5.15	3
0	18126	5.15	5
0	18127	5.15	3
0	18128	5.15	1
0	18129	5.15	1
0	18218	5.2	3
0	18219	5.2	5
0	18220	5.2	3
0	18221	5.2	5
0	18222	5.2	8
0	18223	5.2	5
0	18224	5.2	3
0	18225	5.2	5
0	18226	5.2	3
0	18227	5.2	1
0	18228	5.2	1
0	18232	5.2	3
0	18233	5.2	5
0	18234	5.2	3
0	18235	5.2	5
0	18236	5.2	8
0	18237	5.2	5
0	18238	5.2	3
0	18239	5.2	5
0	18240	5.2	3
0	18241	5.2	1
0	18242	5.2	1
0	18353	5.25	3
0	18354	5.25	5
0	18355	5.25	3
0	18356	5.25	5
0	18357	5.25	8
0	18358	5.25	5
0	18359	5.25	3
0	18360	5.25	5
0	18361	5.25	3
0	18362	5.25	1
0	18363	5.25	1
0	18452	5.3	3
0	18453	5.3	5
0	18454	5.3	3
0	18455	5.3	5
0	18456	5.3	8
0	18457	5.3	5
0	18458	5.3	3
0	18459	5.3	5
0	18460	5.3	3
0	18461	5.3	1
0	18462	5.3	1
0	18466	5.3	3
0	18467	5.3	5
0	18468	5.3	3
0	18469	5.3	5
0	18470	5.3	8
0	18471	5.3	5
0	18472	5.3	3
0	18473	5.3	5
0	18474	5.3	3
0	18475	5.3	1
0	18476	5.3	1
0	18587	5.35	3
0	18588	5.35	5
0	18589	5.35	3
0	18590	5.35	5
0	18591	5.35	8
0	18592	5.35	5
0	18593	5.35	3
0	18594	5.35	5
0	18595	5.35	3
0	18596	5.35	1
0	18597	5.35	1
0	18686	5.4	3
0	18687	5.4	5
0	18688	5.4	3
0	18689	5.4	5
0	18690	5.4	8
0	18691	5.4	5
0	18692	5.4	3
0	18693	5.4	5
0	18694	5.4	3
0	18695	5.4	1
0	18696	5.4	1
0	18700	5.4	3
0	18701	5.4	5
0	18702	5.4	3
0	18703	5.4	5
0	18704	5.4	8
0	18705	5.4	5
0	18706	5.4	3
0	18707	5.4	5
0	18708	5.4	3
0	18709	5.4	1
0	18710	5.4	1
0	18844	5.45	3
0	18845	5.45	5
0	18846	5.45	3
0	18847	5.45	5
0	18848	5.45	8
0	18849	5.45	5
0	18850	5.45	3
0	18851	5.45	5
0	18852	5.45	3
0	18853	5.45	1
0	18854	5.45	1
0	19022	5.5	3
0	19023	5.5	5
0	19024	5.5	3
0	19025	5.5	5
0	19026	5.5	8
0	19027	5.5	5
0	19028	5.5	3
0	19029	5.5	5
0	19030	5.5	3
0	19031	5.5	1
0	19032	5.5	1
0	19036	5.5	3
0	19037	5.5	5
0	19038	5.5	3
0	19039	5.5	5
0	19040	5.5	8
0	19041	5.5	5
0	19042	5.5	3
0	19043	5.5	5
0	19044	5.5	3
0	19045	5.5	1
0	19046	5.5	1
0	19542	5.55	3
0	19543	5.55	5
0	19544	5.55	3
0	19545	5.55	5
0	19546	5.55	8
0	19547	5.55	5
0	19548	5.55	3
0	19549	5.55	5
0	19550	5.55	3
0	19551	5.55	1
0	19552	5.55	1
0	19697	5.6	3
0	19698	5.6	5
0	19699	5.6	3
0	19700	5.6	5
0	19701	5.6	8
0	19702	5.6	5
0	19703	5.6	3
0	19704	5.6	5
0	19705	5.6	3
0	19706	5.6	1
0	19707	5.6	1
0	19711	5.6	3
0	19712	5.6	5
0	19713	5.6	3
0	19714	5.6	5
0	19715	5.6	8
0	19716	5.6	5
0	19717	5.6	3
0	19718	5.6	5
0	19719	5.6	3
0	19720	5.6	1
0	19721	5.6	1
0	19924	5.65	3
0	19925	5.65	5
0	19926	5.65	3
0	19927	5.65	5
0	19928	5.65	8
0	19929	5.65	5
0	19930	5.65	3
0	19931	5.65	5
0	19932	5.65	3
0	19933	5.65	1
0	19934	5.65	1
0	20115	5.7	3
0	20116	5.7	5
0	20117	5.7	3
0	20118	5.7	5
0	20119	5.7	8
0	20120	5.7	5
0	20121	5.7	3
0	20122	5.7	5
0	20123	5.7	3
0	20124	5.7	1
0	20125	5.7	1
0	20129	5.7	3
0	20130	5.7	5
0	20131	5.7	3
0	20132	5.7	5
0	20133	5.7	8
0	20134	5.7	5
0	20135	5.7	3
0	20136	5.7	5
0	20137	5.7	3
0	20138	5.7	1
0	20139	5.7	1
0	20250	5.75	3
0	20251	5.75	5
0	20252	5.75	3
0	20253	5.75	5
0	20254	5.75	8
0	20255	5.75	5
0	20256	5.75	3
0	20257	5.75	5
0	20258	5.75	3
0	20259	5.75	1
0	20260	5.75	1
0	20349	5.8	3
0	20350	5.8	5
0	20351	5.8	3
0	20352	5.8	5
0	20353	5.8	8
0	20354	5.8	5
0	20355	5.8	3
0	20356	5.8	5
0	20357	5.8	3
0	20358	5.8	1
0	20359	5.8	1
0	20363	5.8	3
0	20364	5.8	5
0	20365	5.8	3
0	20366	5.8	5
0	20367	5.8	8
0	20368	5.8	5
0	20369	5.8	3
0	20370	5.8	5
0	20371	5.8	3
0	20372	5.8	1
0	20373	5.8	1
0	20484	5.85	3
0	20485	5.85	5
0	20486	5.85	3
0	20487	5.85	5
0	20488	5.85	8
0	20489	5.85	5
0	20490	5.85	3
0	20491	5.85	5
0	20492	5.85	3
0	20493	5.85	1
0	20494	5.85	1
0	20583	5.9	3
0	20584	5.9	5
0	20585	5.9	3
0	20586	5.9	5
0	20587	5.9	8
0	20588	5.9	5
0	20589	5.9	3
0	20590	5.9	5
0	20591	5.9	3
0	20592	5.9	1
0	20593	5.9	1
0	20597	5.9	3
0	20598	5.9	5
0	20599	5.9	3
0	20600	5.9	5
0	20601	5.9	8
0	20602	5.9	5
0	20603	5.9	3
0	20604	5.9	5
0	20605	5.9	3
0	20606	5.9	1
0	20607	5.9	1
0	20718	5.95	3
0	20719	5.95	5
0	20720	5.95	3
0	20721	5.95	5
0	20722	5.95	8
0	20723	5.95	5
0	20724	5.95	3
0	20725	5.95	5
0	20726	5.95	3
0	20727	5.95	1
0	20728	5.95	1
0	20838	6	3
0	20839	6	5
0	20840	6	3
0	20841	6	5
0	20842	6	8
0	20843	6	5
0	20844	6	3
0	20845	6	5
0	20846	6	3
0	20847	6	1
0	20848	6	1
0	20852	6	3
0	20853	6	5
0	20854	6	3
0	20855	6	5
0	20856	6	8
0	20857	6	5
0	20858	6	3
0	20859	6	5
0	20860	6	3
0	20861	6	1
0	20862	6	1
0	21082	6.05	3
0	21083	6.05	5
0	21084	6.05	3
0	21085	6.05	5
0	21086	6.05	8
0	21087	6.05	5
0	21088	6.05	3
0	21089	6.05	5
0	21090	6.05	3
0	21091	6.05	1
0	21092	6.05	1
0	21574	6.1	3
0	21575	6.1	5
0	21576	6.1	3
0	21577	6.1	5
0	21578	6.1	8
0	21579	6.1	5
0	21580	6.1	3
0	21581	6.1	5
0	21582	6.1	3
0	21583	6.1	1
0	21584	6.1	1
0	21588	6.1	3
0	21589	6.1	5
0	21590	6.1	3
0	21591	6.1	5
0	21592	6.1	8
0	21593	6.1	5
0	21594	6.1	3
0	21595	6.1	5
0	21596	6.1	3
0	21597	6.1	1
0	21598	6.1	1
0	21756	6.15	3
0	21757	6.15	5
0	21758	6.15	3
0	21759	6.15	5
0	21760	6.15	8
0	21761	6.15	5
0	21762	6.15	3
0	21763	6.15	5
0	21764	6.15	3
0	21765	6.15	1
0	21766	6.15	1
0	21964	6.2	3
0	21965	6.2	5
0	21966	6.2	3
0	21967	6.2	5
0	21968	6.2	8
0	21969	6.2	5
0	21970	6.2	3
0	21971	6.2	5
0	21972	6.2	3
0	21973	6.2	1
0	21974	6.2	1
0	21978	6.2	3
0	21979	6.2	5
0	21980	6.2	3
0	21981	6.2	5
0	21982	6.2	8
0	21983	6.2	5
0	21984	6.2	3
0	21985	6.2	5
0	21986	6.2	3
0	21987	6.2	1
0	21988	6.2	1
0	22173	6.25	3
0	22174	6.25	5
0	22175	6.25	3
0	22176	6.25	5
0	22177	6.25	8
0	22178	6.25	5
0	22179	6.25	3
0	22180	6.25	5
0	22181	6.25	3
0	22182	6.25	1
0	22183	6.25	1
0	22272	6.3	3
0	22273	6.3	5
0	22274	6.3	3
0	22275	6.3	5
0	22276	6.3	8
0	22277	6.3	5
0	22278	6.3	3
0	22279	6.3	5
0	22280	6.3	3
0	22281	6.3	1
0	22282	6.3	1
0	22286	6.3	3
0	22287	6.3	5
0	22288	6.3	3
0	22289	6.3	5
0	22290	6.3	8
0	22291	6.3	5
0	22292	6.3	3
0	22293	6.3	5
0	22294	6.3	3
0	22295	6.3	1
0	22296	6.3	1
0	22407	6.35	3
0	22408	6.35	5
0	22409	6.35	3
0	22410	6.35	5
0	22411	6.35	8
0	22412	6.35	5
0	22413	6.35	3
0	22414	6.35	5
0	22415	6.35	3
0	22416	6.35	1
0	22417	6.35	1
0	22506	6.4	3
0	22507	6.4	5
0	22508	6.4	3
0	22509	6.4	5
0	22510	6.4	8
0	22511	6.4	5
0	22512	6.4	3
0	22513	6.4	5
0	22514	6.4	3
0	22515	6.4	1
0	22516	6.4	1
0	22520	6.4	3
0	22521	6.4	5
0	22522	6.4	3
0	22523	6.4	5
0	22524	6.4	8
0	22525	6.4	5
0	22526	6.4	3
0	22527	6.4	5
0	22528	6.4	3
0	22529	6.4	1
0	22530	6.4	1
0	22641	6.45	3
0	22642	6.45	5
0	22643	6.45	3
0	22644	6.45	5
0	22645	6.45	8
0	22646	6.45	5
0	22647	6.45	3
0	22648	6.45	5
0	22649	6.45	3
0	22650	6.45	1
0	22651	6.45	1
0	22740	6.5	3
0	22741	6.5	5
0	22742	6.5	3
0	22743	6.5	5
0	22744	6.5	8
0	22745	6.5	5
0	22746	6.5	3
0	22747	6.5	5
0	22748	6.5	3
0	22749	6.5	1
0	22750	6.5	1
0	22754	6.5	3
0	22755	6.5	5
0	22756	6.5	3
0	22757	6.5	5
0	22758	6.5	8
0	22759	6.5	5
0	22760	6.5	3
0	22761	6.5	5
0	22762	6.5	3
0	22763	6.5	1
0	22764	6.5	1
0	22880	6.55	3
0	22881	6.55	5
0	22882	6.55	3
0	22883	6.55	5
0	22884	6.55	8
0	22885	6.55	5
0	22886	6.55	3
0	22887	6.55	5
0	22888	6.55	3
0	22889	6.55	1
0	22890	6.55	1
0	23070	6.6	3
0	23071	6.6	5
0	23072	6.6	3
0	23073	6.6	5
0	23074	6.6	8
0	23075	6.6	5
0	23076	6.6	3
0	23077	6.6	5
0	23078	6.6	3
0	23079	6.6	1
0	23080	6.6	1
0	23084	6.6	3
0	23085	6.6	5
0	23086	6.6	3
0	23087	6.6	5
0	23088	6.6	8
0	23089	6.6	5
0	23090	6.6	3
0	23091	6.6	5
0	23092	6.6	3
0	23093	6.6	1
0	23094	6.6	1
0	23564	6.65	3
0	23565	6.65	5
0	23566	6.65	3
0	23567	6.65	5
0	23568	6.65	8
0	23569	6.65	5
0	23570	6.65	3
0	23571	6.65	5
0	23572	6.65	3
0	23573	6.65	1
0	23574	6.65	1
0	23677	6.7	3
0	23678	6.7	5
0	23679	6.7	3
0	23680	6.7	5
0	23681	6.7	8
0	23682	6.7	5
0	23683	6.7	3
0	23684	6.7	5
0	23685	6.7	3
0	23686	6.7	1
0	23687	6.7	1
0	23691	6.7	3
0	23692	6.7	5
0	23693	6.7	3
0	23694	6.7	5
0	23695	6.7	8
0	23696	6.7	5
0	23697	6.7	3
0	23698	6.7	5
0	23699	6.7	3
0	23700	6.7	1
0	23701	6.7	1
0	23886	6.75	3
0	23887	6.75	5
0	23888	6.75	3
0	23889	6.75	5
0	23890	6.75	8
0	23891	6.75	5
0	23892	6.75	3
0	23893	6.75	5
0	23894	6.75	3
0	23895	6.75	1
0	23896	6.75	1
0	24059	6.8	3
0	24060	6.8	5
0	24061	6.8	3
0	24062	6.8	5
0	24063	6.8	8
0	24064	6.8	5
0	24065	6.8	3
0	24066	6.8	5
0	24067	6.8	3
0	24068	6.8	1
0	24069	6.8	1
0	24073	6.8	3
0	24074	6.8	5
0	24075	6.8	3
0	24076	6.8	5
0	24077	6.8	8
0	24078	6.8	5
0	24079	6.8	3
0	24080	6.8	5
0	24081	6.8	3
0	24082	6.8	1
0	24083	6.8	1
0	24194	6.85	3
0	24195	6.85	5
0	24196	6.85	3
0	24197	6.85	5
0	24198	6.85	8
0	24199	6.85	5
0	24200	6.85	3
0	24201	6.85	5
0	24202	6.85	3
0	24203	6.85	1
0	24204	6.85	1
0	24293	6.9	3
0	24294	6.9	5
0	24295	6.9	3
0	24296	6.9	5
0	24297	6.9	8
0	24298	6.9	5
0	24299	6.9	3
0	24300	6.9	5
0	24301	6.9	3
0	24302	6.9	1
0	24303	6.9	1
0	24307	6.9	3
0	24308	6.9	5
0	24309	6.9	3
0	24310	6.9	5
0	24311	6.9	8
0	24312	6.9	5
0	24313	6.9	3
0	24314	6.9	5
0	24315	6.9	3
0	24316	6.9	1
0	24317	6.9	1
0	24428	6.95	3
0	24429	6.95	5
0	24430	6.95	3
0	24431	6.95	5
0	24432	6.95	8
0	24433	6.95	5
0	24434	6.95	3
0	24435	6.95	5
0	24436	6.95	3
0	24437	6.95	1
0	24438	6.95	1
0	24538	7	3
0	24539	7	5
0	24540	7	3
0	24541	7	5
0	24542	7	8
0	24543	7	5
0	24544	7	3
0	24545	7	5
0	24546	7	3
0	24547	7	1
0	24548	7	1
0	24552	7	3
0	24553	7	5
0	24554	7	3
0	24555	7	5
0	24556	7	8
0	24557	7	5
0	24558	7	3
0	24559	7	5
0	24560	7	3
0	24561	7	1
0	24562	7	1
0	24673	7.05	3
0	24674	7.05	5
0	24675	7.05	3
0	24676	7.05	5
0	24677	7.05	8
0	24678	7.05	5
0	24679	7.05	3
0	24680	7.05	5
0	24681	7.05	3
0	24682	7.05	1
0	24683	7.05	1
0	24806	7.1	3
0	24807	7.1	5
0	24808	7.1	3
0	24809	7.1	5
0	24810	7.1	8
0	24811	7.1	5
0	24812	7.1	3
0	24813	7.1	5
0	24814	7.1	3
0	24815	7.1	1
0	24816	7.1	1
0	24820	7.1	3
0	24821	7.1	5
0	24822	7.1	3
0	24823	7.1	5
0	24824	7.1	8
0	24825	7.1	5
0	24826	7.1	3
0	24827	7.1	5
0	24828	7.1	3
0	24829	7.1	1
0	24830	7.1	1
0	25013	7.15	3
0	25014	7.15	5
0	25015	7.15	3
0	25016	7.15	5
0	25017	7.15	8
0	25018	7.15	5
0	25019	7.15	3
0	25020	7.15	5
0	25021	7.15	3
0	25022	7.15	1
0	25023	7.15	1
0	25447	7.2	3
0	25448	7.2	5
0	25449	7.2	3
0	25450	7.2	5
0	25451	7.2	8
0	25452	7.2	5
0	25453	7.2	3
0	25454	7.2	5
0	25455	7.2	3
0	25456	7.2	1
0	25457	7.2	1
0	25461	7.2	3
0	25462	7.2	5
0	25463	7.2	3
0	25464	7.2	5
0	25465	7.2	8
0	25466	7.2	5
0	25467	7.2	3
0	25468	7.2	5
0	25469	7.2	3
0	25470	7.2	1
0	25471	7.2	1
0	25614	7.25	3
0	25615	7.25	5
0	25616	7.25	3
0	25617	7.25	5
0	25618	7.25	8
0	25619	7.25	5
0	25620	7.25	3
0	25621	7.25	5
0	25622	7.25	3
0	25623	7.25	1
0	25624	7.25	1
0	25753	7.3	3
0	25754	7.3	5
0	25755	7.3	3
0	25756	7.3	5
0	25757	7.3	8
0	25758	7.3	5
0	25759	7.3	3
0	25760	7.3	5
0	25761	7.3	3
0	25762	7.3	1
0	25763	7.3	1
0	25767	7.3	3
0	25768	7.3	5
0	25769	7.3	3
0	25770	7.3	5
0	25771	7.3	8
0	25772	7.3	5
0	25773	7.3	3
0	25774	7.3	5
0	25775	7.3	3
0	25776	7.3	1
0	25777	7.3	1
0	25980	7.35	3
0	25981	7.35	5
0	25982	7.35	3
0	25983	7.35	5
0	25984	7.35	8
0	25985	7.35	5
0	25986	7.35	3
0	25987	7.35	5
0	25988	7.35	3
0	25989	7.35	1
0	25990	7.35	1
0	26079	7.4	3
0	26080	7.4	5
0	26081	7.4	3
0	26082	7.4	5
0	26083	7.4	8
0	26084	7.4	5
0	26085	7.4	3
0	26086	7.4	5
0	26087	7.4	3
0	26088	7.4	1
0	26089	7.4	1
0	26093	7.4	3
0	26094	7.4	5
0	26095	7.4	3
0	26096	7.4	5
0	26097	7.4	8
0	26098	7.4	5
0	26099	7.4	3
0	26100	7.4	5
0	26101	7.4	3
0	26102	7.4	1
0	26103	7.4	1
0	26237	7.45	3
0	26238	7.45	5
0	26239	7.45	3
0	26240	7.45	5
0	26241	7.45	8
0	26242	7.45	5
0	26243	7.45	3
0	26244	7.45	5
0	26245	7.45	3
0	26246	7.45	1
0	26247	7.45	1
0	26336	7.5	3
0	26337	7.5	5
0	26338	7.5	3
0	26339	7.5	5
0	26340	7.5	8
0	26341	7.5	5
0	26342	7.5	3
0	26343	7.5	5
0	26344	7.5	3
0	26345	7.5	1
0	26346	7.5	1
0	26350	7.5	3
0	26351	7.5	5
0	26352	7.5	3
0	26353	7.5	5
0	26354	7.5	8
0	26355	7.5	5
0	26356	7.5	3
0	26357	7.5	5
0	26358	7.5	3
0	26359	7.5	1
0	26360	7.5	1
0	26471	7.55	3
0	26472	7.55	5
0	26473	7.55	3
0	26474	7.55	5
0	26475	7.55	8
0	26476	7.55	5
0	26477	7.55	3
0	26478	7.55	5
0	26479	7.55	3
0	26480	7.55	1
0	26481	7.55	1
0	26570	7.6	3
0	26571	7.6	5
0	26572	7.6	3
0	26573	7.6	5
0	26574	7.6	8
0	26575	7.6	5
0	26576	7.6	3
0	26577	7.6	5
0	26578	7.6	3
0	26579	7.6	1
0	26580	7.6	1
0	26584	7.6	3
0	26585	7.6	5
0	26586	7.6	3
0	26587	7.6	5
0	26588	7.6	8
0	26589	7.6	5
0	26590	7.6	3
0	26591	7.6	5
0	26592	7.6	3
0	26593	7.6	1
0	26594	7.6	1
0	26728	7.65	3
0	26729	7.65	5
0	26730	7.65	3
0	26731	7.65	5
0	26732	7.65	8
0	26733	7.65	5
0	26734	7.65	3
0	26735	7.65	5
0	26736	7.65	3
0	26737	7.65	1
0	26738	7.65	1
0	26919	7.7	3
0	26920	7.7	5
0	26921	7.7	3
0	26922	7.7	5
0	26923	7.7	8
0	26924	7.7	5
0	26925	7.7	3
0	26926	7.7	5
0	26927	7.7	3
0	26928	7.7	1
0	26929	7.7	1
0	26933	7.7	3
0	26934	7.7	5
0	26935	7.7	3
0	26936	7.7	5
0	26937	7.7	8
0	26938	7.7	5
0	26939	7.7	3
0	26940	7.7	5
0	26941	7.7	3
0	26942	7.7	1
0	26943	7.7	1
0	27375	7.75	3
0	27376	7.75	5
0	27377	7.75	3
0	27378	7.75	5
0	27379	7.75	8
0	27380	7.75	5
0	27381	7.75	3
0	27382	7.75	5
0	27383	7.75	3
0	27384	7.75	1
0	27385	7.75	1
0	27514	7.8	3
0	27515	7.8	5
0	27516	7.8	3
0	27517	7.8	5
0	27518	7.8	8
0	27519	7.8	5
0	27520	7.8	3
0	27521	7.8	5
0	27522	7.8	3
0	27523	7.8	1
0	27524	7.8	1
0	27528	7.8	3
0	27529	7.8	5
0	27530	7.8	3
0	27531	7.8	5
0	27532	7.8	8
0	27533	7.8	5
0	27534	7.8	3
0	27535	7.8	5
0	27536	7.8	3
0	27537	7.8	1
0	27538	7.8	1
0	27728	7.85	3
0	27729	7.85	5
0	27730	7.85	3
0	27731	7.85	5
0	27732	7.85	8
0	27733	7.85	5
0	27734	7.85	3
0	27735	7.85	5
0	27736	7.85	3
0	27737	7.85	1
0	27738	7.85	1
0	27919	7.9	3
0	27920	7.9	5
0	27921	7.9	3
0	27922	7.9	5
0	27923	7.9	8
0	27924	7.9	5
0	27925	7.9	3
0	27926	7.9	5
0	27927	7.9	3
0	27928	7.9	1
0	27929	7.9	1
0	27933	7.9	3
0	27934	7.9	5
0	27935	7.9	3
0	27936	7.9	5
0	27937	7.9	8
0	27938	7.9	5
0	27939	7.9	3
0	27940	7.9	5
0	27941	7.9	3
0	27942	7.9	1
0	27943	7.9	1
0	28059	7.95	3
0	28060	7.95	5
0	28061	7.95	3
0	28062	7.95	5
0	28063	7.95	8
0	28064	7.95	5
0	28065	7.95	3
0	28066	7.95	5
0	28067	7.95	3
0	28068	7.95	1
0	28069	7.95	1
0	28192	8	3
0	28193	8	5
0	28194	8	3
0	28195	8	5
0	28196	8	8
0	28197	8	5
0	28198	8	3
0	28199	8	5
0	28200	8	3
0	28201	8	1
0	28202	8	1
0	28206	8	3
0	28207	8	5
0	28208	8	3
0	28209	8	5
0	28210	8	8
0	28211	8	5
0	28212	8	3
0	28213	8	5
0	28214	8	3
0	28215	8	1
0	28216	8	1
0	28327	8.05	3
0	28328	8.05	5
0	28329	8.05	3
0	28330	8.05	5
0	28331	8.05	8
0	28332	8.05	5
0	28333	8.05	3
0	28334	8.05	5
0	28335	8.05	3
0	28336	8.05	1
0	28337	8.05	1
0	28437	8.1	3
0	28438	8.1	5
0	28439	8.1	3
0	28440	8.1	5
0	28441	8.1	8
0	28442	8.1	5
0	28443	8.1	3
0	28444	8.1	5
0	28445	8.1	3
0	28446	8.1	1
0	28447	8.1	1
0	28451	8.1	3
0	28452	8.1	5
0	28453	8.1	3
0	28454	8.1	5
0	28455	8.1	8
0	28456	8.1	5
0	28457	8.1	3
0	28458	8.1	5
0	28459	8.1	3
0	28460	8.1	1
0	28461	8.1	1
0	28583	8.15	3
0	28584	8.15	5
0	28585	8.15	3
0	28586	8.15	5
0	28587	8.15	8
0	28588	8.15	5
0	28589	8.15	3
0	28590	8.15	5
0	28591	8.15	3
0	28592	8.15	1
0	28593	8.15	1
0	28785	8.2	3
0	28786	8.2	5
0	28787	8.2	3
0	28788	8.2	5
0	28789	8.2	8
0	28790	8.2	5
0	28791	8.2	3
0	28792	8.2	5
0	28793	8.2	3
0	28794	8.2	1
0	28795	8.2	1
0	28799	8.2	3
0	28800	8.2	5
0	28801	8.2	3
0	28802	8.2	5
0	28803	8.2	8
0	28804	8.2	5
0	28805	8.2	3
0	28806	8.2	5
0	28807	8.2	3
0	28808	8.2	1
0	28809	8.2	1
0	28920	8.25	3
0	28921	8.25	5
0	28922	8.25	3
0	28923	8.25	5
0	28924	8.25	8
0	28925	8.25	5
0	28926	8.25	3
0	28927	8.25	5
0	28928	8.25	3
0	28929	8.25	1
0	28930	8.25	1
0	29281	8.3	3
0	29282	8.3	5
0	29283	8.3	3
0	29284	8.3	5
0	29285	8.3	8
0	29286	8.3	5
0	29287	8.3	3
0	29288	8.3	5
0	29289	8.3	3
0	29290	8.3	1
0	29291	8.3	1
0	29295	8.3	3
0	29296	8.3	5
0	29297	8.3	3
0	29298	8.3	5
0	29299	8.3	8
0	29300	8.3	5
0	29301	8.3	3
0	29302	8.3	5
0	29303	8.3	3
0	29304	8.3	1
0	29305	8.3	1
0	29513	8.35	3
0	29514	8.35	5
0	29515	8.35	3
0	29516	8.35	5
0	29517	8.35	8
0	29518	8.35	5
0	29519	8.35	3
0	29520	8.35	5
0	29521	8.35	3
0	29522	8.35	1
0	29523	8.35	1
0	29663	8.4	3
0	29664	8.4	5
0	29665	8.4	3
0	29666	8.4	5
0	29667	8.4	8
0	29668	8.4	5
0	29669	8.4	3
0	29670	8.4	5
0	29671	8.4	3
0	29672	8.4	1
0	29673	8.4	1
0	29677	8.4	3
0	29678	8.4	5
0	29679	8.4	3
0	29680	8.4	5
0	29681	8.4	8
0	29682	8.4	5
0	29683	8.4	3
0	29684	8.4	5
0	29685	8.4	3
0	29686	8.4	1
0	29687	8.4	1
0	29867	8.45	3
0	29868	8.45	5
0	29869	8.45	3
0	29870	8.45	5
0	29871	8.45	8
0	29872	8.45	5
0	29873	8.45	3
0	29874	8.45	5
0	29875	8.45	3
0	29876	8.45	1
0	29877	8.45	1
0	29994	8.5	3
0	29995	8.5	5
0	29996	8.5	3
0	29997	8.5	5
0	29998	8.5	8
0	29999	8.5	5
0	30000	8.5	3
0	30001	8.5	5
0	30002	8.5	3
0	30003	8.5	1
0	30004	8.5	1
0	30008	8.5	3
0	30009	8.5	5
0	30010	8.5	3
0	30011	8.5	5
0	30012	8.5	8
0	30013	8.5	5
0	30014	8.5	3
0	30015	8.5	5
0	30016	8.5	3
0	30017	8.5	1
0	30018	8.5	1
0	30152	8.55	3
0	30153	8.55	5
0	30154	8.55	3
0	30155	8.55	5
0	30156	8.55	8
0	30157	8.55	5
0	30158	8.55	3
0	30159	8.55	5
0	30160	8.55	3
0	30161	8.55	1
0	30162	8.55	1
0	30251	8.6	3
0	30252	8.6	5
0	30253	8.6	3
0	30254	8.6	5
0	30255	8.6	8
0	30256	8.6	5
0	30257	8.6	3
0	30258	8.6	5
0	30259	8.6	3
0	30260	8.6	1
0	30261	8.6	1
0	30265	8.6	3
0	30266	8.6	5
0	30267	8.6	3
0	30268	8.6	5
0	30269	8.6	8
0	30270	8.6	5
0	30271	8.6	3
0	30272	8.6	5
0	30273	8.6	3
0	30274	8.6	1
0	30275	8.6	1
0	30386	8.65	3
0	30387	8.65	5
0	30388	8.65	3
0	30389	8.65	5
0	30390	8.65	8
0	30391	8.65	5
0	30392	8.65	3
0	30393	8.65	5
0	30394	8.65	3
0	30395	8.65	1
0	30396	8.65	1
0	30485	8.7	3
0	30486	8.7	5
0	30487	8.7	3
0	30488	8.7	5
0	30489	8.7	8
0	30490	8.7	5
0	30491	8.7	3
0	30492	8.7	5
0	30493	8.7	3
0	30494	8.7	1
0	30495	8.7	1
0	30499	8.7	3
0	30500	8.7	5
0	30501	8.7	3
0	30502	8.7	5
0	30503	8.7	8
0	30504	8.7	5
0	30505	8.7	3
0	30506	8.7	5
0	30507	8.7	3
0	30508	8.7	1
0	30509	8.7	1
0	30689	8.75	3
0	30690	8.75	5
0	30691	8.75	3
0	30692	8.75	5
0	30693	8.75	8
0	30694	8.75	5
0	30695	8.75	3
0	30696	8.75	5
0	30697	8.75	3
0	30698	8.75	1
0	30699	8.75	1
0	30788	8.8	3
0	30789	8.8	5
0	30790	8.8	3
0	30791	8.8	5
0	30792	8.8	8
0	30793	8.8	5
0	30794	8.8	3
0	30795	8.8	5
0	30796	8.8	3
0	30797	8.8	1
0	30798	8.8	1
0	30802	8.8	3
0	30803	8.8	5
0	30804	8.8	3
0	30805	8.8	5
0	30806	8.8	8
0	30807	8.8	5
0	30808	8.8	3
0	30809	8.8	5
0	30810	8.8	3
0	30811	8.8	1
0	30812	8.8	1
0	31170	8.85	3
0	31171	8.85	5
0	31172	8.85	3
0	31173	8.85	5
0	31174	8.85	8
0	31175	8.85	5
0	31176	8.85	3
0	31177	8.85	5
0	31178	8.85	3
0	31179	8.85	1
0	31180	8.85	1
0	31332	8.9	3
0	31333	8.9	5
0	31334	8.9	3
0	31335	8.9	5
0	31336	8.9	8
0	31337	8.9	5
0	31338	8.9	3
0	31339	8.9	5
0	31340	8.9	3
0	31341	8.9	1
0	31342	8.9	1
0	31346	8.9	3
0	31347	8.9	5
0	31348	8.9	3
0	31349	8.9	5
0	31350	8.9	8
0	31351	8.9	5
0	31352	8.9	3
0	31353	8.9	5
0	31354	8.9	3
0	31355	8.9	1
0	31356	8.9	1
0	31536	8.95	3
0	31537	8.95	5
0	31538	8.95	3
0	31539	8.95	5
0	31540	8.95	8
0	31541	8.95	5
0	31542	8.95	3
0	31543	8.95	5
0	31544	8.95	3
0	31545	8.95	1
0	31546	8.95	1
0	31697	9	3
0	31698	9	5
0	31699	9	3
0	31700	9	5
0	31701	9	8
0	31702	9	5
0	31703	9	3
0	31704	9	5
0	31705	9	3
0	31706	9	1
0	31707	9	1
0	31711	9	3
0	31712	9	5
0	31713	9	3
0	31714	9	5
0	31715	9	8
0	31716	9	5
0	31717	9	3
0	31718	9	5
0	31719	9	3
0	31720	9	1
0	31721	9	1
0	31837	9.05	3
0	31838	9.05	5
0	31839	9.05	3
0	31840	9.05	5
0	31841	9.05	8
0	31842	9.05	5
0	31843	9.05	3
0	31844	9.05	5
0	31845	9.05	3
0	31846	9.05	1
0	31847	9.05	1
0	31993	9.1	3
0	31994	9.1	5
0	31995	9.1	3
0	31996	9.1	5
0	31997	9.1	8
0	31998	9.1	5
0	31999	9.1	3
0	32000	9.1	5
0	32001	9.1	3
0	32002	9.1	1
0	32003	9.1	1
0	32007	9.1	3
0	32008	9.1	5
0	32009	9.1	3
0	32010	9.1	5
0	32011	9.1	8
0	32012	9.1	5
0	32013	9.1	3
0	32014	9.1	5
0	32015	9.1	3
0	32016	9.1	1
0	32017	9.1	1
0	32139	9.15	3
0	32140	9.15	5
0	32141	9.15	3
0	32142	9.15	5
0	32143	9.15	8
0	32144	9.15	5
0	32145	9.15	3
0	32146	9.15	5
0	32147	9.15	3
0	32148	9.15	1
0	32149	9.15	1
0	32238	9.2	3
0	32239	9.2	5
0	32240	9.2	3
0	32241	9.2	5
0	32242	9.2	8
0	32243	9.2	5
0	32244	9.2	3
0	32245	9.2	5
0	32246	9.2	3
0	32247	9.2	1
0	32248	9.2	1
0	32252	9.2	3
0	32253	9.2	5
0	32254	9.2	3
0	32255	9.2	5
0	32256	9.2	8
0	32257	9.2	5
0	32258	9.2	3
0	32259	9.2	5
0	32260	9.2	3
0	32261	9.2	1
0	32262	9.2	1
0	32413	9.25	3
0	32414	9.25	5
0	32415	9.25	3
0	32416	9.25	5
0	32417	9.25	8
0	32418	9.25	5
0	32419	9.25	3
0	32420	9.25	5
0	32421	9.25	3
0	32422	9.25	1
0	32423	9.25	1
0	32545	9.3	3
0	32546	9.3	5
0	32547	9.3	3
0	32548	9.3	5
0	32549	9.3	8
0	32550	9.3	5
0	32551	9.3	3
0	32552	9.3	5
0	32553	9.3	3
0	32554	9.3	1
0	32555	9.3	1
0	32559	9.3	3
0	32560	9.3	5
0	32561	9.3	3
0	32562	9.3	5
0	32563	9.3	8
0	32564	9.3	5
0	32565	9.3	3
0	32566	9.3	5
0	32567	9.3	3
0	32568	9.3	1
0	32569	9.3	1
0	32680	9.35	3
0	32681	9.35	5
0	32682	9.35	3
0	32683	9.35	5
0	32684	9.35	8
0	32685	9.35	5
0	32686	9.35	3
0	32687	9.35	5
0	32688	9.35	3
0	32689	9.35	1
0	32690	9.35	1
0	33030	9.4	3
0	33031	9.4	5
0	33032	9.4	3
0	33033	9.4	5
0	33034	9.4	8
0	33035	9.4	5
0	33036	9.4	3
0	33037	9.4	5
0	33038	9.4	3
0	33039	9.4	1
0	33040	9.4	1
0	33044	9.4	3
0	33045	9.4	5
0	33046	9.4	3
0	33047	9.4	5
0	33048	9.4	8
0	33049	9.4	5
0	33050	9.4	3
0	33051	9.4	5
0	33052	9.4	3
0	33053	9.4	1
0	33054	9.4	1
0	33188	9.45	3
0	33189	9.45	5
0	33190	9.45	3
0	33191	9.45	5
0	33192	9.45	8
0	33193	9.45	5
0	33194	9.45	3
0	33195	9.45	5
0	33196	9.45	3
0	33197	9.45	1
0	33198	9.45	1
0	33379	9.5	3
0	33380	9.5	5
0	33381	9.5	3
0	33382	9.5	5
0	33383	9.5	8
0	33384	9.5	5
0	33385	9.5	3
0	33386	9.5	5
0	33387	9.5	3
0	33388	9.5	1
0	33389	9.5	1
0	33393	9.5	3
0	33394	9.5	5
0	33395	9.5	3
0	33396	9.5	5
0	33397	9.5	8
0	33398	9.5	5
0	33399	9.5	3
0	33400	9.5	5
0	33401	9.5	3
0	33402	9.5	1
0	33403	9.5	1
0	33560	9.55	3
0	33561	9.55	5
0	33562	9.55	3
0	33563	9.55	5
0	33564	9.55	8
0	33565	9.55	5
0	33566	9.55	3
0	33567	9.55	5
0	33568	9.55	3
0	33569	9.55	1
0	33570	9.55	1
0	33659	9.6	3
0	33660	9.6	5
0	33661	9.6	3
0	33662	9.6	5
0	33663	9.6	8
0	33664	9.6	5
0	33665	9.6	3
0	33666	9.6	5
0	33667	9.6	3
0	33668	9.6	1
0	33669	9.6	1
0	33673	9.6	3
0	33674	9.6	5
0	33675	9.6	3
0	33676	9.6	5
0	33677	9.6	8
0	33678	9.6	5
0	33679	9.6	3
0	33680	9.6	5
0	33681	9.6	3
0	33682	9.6	1
0	33683	9.6	1
0	33845	9.65	3
0	33846	9.65	5
0	33847	9.65	3
0	33848	9.65	5
0	33849	9.65	8
0	33850	9.65	5
0	33851	9.65	3
0	33852	9.65	5
0	33853	9.65	3
0	33854	9.65	1
0	33855	9.65	1
0	33944	9.7	3
0	33945	9.7	5
0	33946	9.7	3
0	33947	9.7	5
0	33948	9.7	8
0	33949	9.7	5
0	33950	9.7	3
0	33951	9.7	5
0	33952	9.7	3
0	33953	9.7	1
0	33954	9.7	1
0	33958	9.7	3
0	33959	9.7	5
0	33960	9.7	3
0	33961	9.7	5
0	33962	9.7	8
0	33963	9.7	5
0	33964	9.7	3
0	33965	9.7	5
0	33966	9.7	3
0	33967	9.7	1
0	33968	9.7	1
0	34079	9.75	3
0	34080	9.75	5
0	34081	9.75	3
0	34082	9.75	5
0	34083	9.75	8
0	34084	9.75	5
0	34085	9.75	3
0	34086	9.75	5
0	34087	9.75	3
0	34088	9.75	1
0	34089	9.75	1
0	34258	9.8	3
0	34259	9.8	5
0	34260	9.8	3
0	34261	9.8	5
0	34262	9.8	8
0	34263	9.8	5
0	34264	9.8	3
0	34265	9.8	5
0	34266	9.8	3
0	34267	9.8	1
0	34268	9.8	1
0	34272	9.8	3
0	34273	9.8	5
0	34274	9.8	3
0	34275	9.8	5
0	34276	9.8	8
0	34277	9.8	5
0	34278	9.8	3
0	34279	9.8	5
0	34280	9.8	3
0	34281	9.8	1
0	34282	9.8	1
0	34416	9.85	3
0	34417	9.85	5
0	34418	9.85	3
0	34419	9.85	5
0	34420	9.85	8
0	34421	9.85	5
0	34422	9.85	3
0	34423	9.85	5
0	34424	9.85	3
0	34425	9.85	1
0	34426	9.85	1
0	34561	9.9	3
0	34562	9.9	5
0	34563	9.9	3
0	34564	9.9	5
0	34565	9.9	8
0	34566	9.9	5
0	34567	9.9	3
0	34568	9.9	5
0	34569	9.9	3
0	34570	9.9	1
0	34571	9.9	1
0	34575	9.9	3
0	34576	9.9	5
0	34577	9.9	3
0	34578	9.9	5
0	34579	9.9	8
0	34580	9.9	5
0	34581	9.9	3
0	34582	9.9	5
0	34583	9.9	3
0	34584	9.9	1
0	34585	9.9	1
0	34999	9.95	3
0	35000	9.95	5
0	35001	9.95	3
0	35002	9.95	5
0	35003	9.95	8
0	35004	9.95	5
0	35005	9.95	3
0	35006	9.95	5
0	35007	9.95	3
0	35008	9.95	1
0	35009	9.95	1
0	35132	10	3
0	35133	10	5
0	35134	10	3
0	35135	10	5
0	35136	10	8
0	35137	10	5
0	35138	10	3
0	35139	10	5
0	35140	10	3
0	35141	10	1
0	35142	10	1
0	35146	10	3
0	35147	10	5
0	35148	10	3
0	35149	10	5
0	35150	10	8
0	35151	10	5
0	35152	10	3
0	35153	10	5
0	35154	10	3
0	35155	10	1
0	35156	10	1
0	35313	10.05	3
0	35314	10.05	5
0	35315	10.05	3
0	35316	10.05	5
0	35317	10.05	8
0	35318	10.05	5
0	35319	10.05	3
0	35320	10.05	5
0	35321	10.05	3
0	35322	10.05	1
0	35323	10.05	1
0	35532	10.1	3
0	35533	10.1	5
0	35534	10.1	3
0	35535	10.1	5
0	35536	10.1	8
0	35537	10.1	5
0	35538	10.1	3
0	35539	10.1	5
0	35540	10.1	3
0	35541	10.1	1
0	35542	10.1	1
0	35546	10.1	3
0	35547	10.1	5
0	35548	10.1	3
0	35549	10.1	5
0	35550	10.1	8
0	35551	10.1	5
0	35552	10.1	3
0	35553	10.1	5
0	35554	10.1	3
0	35555	10.1	1
0	35556	10.1	1
0	35678	10.15	3
0	35679	10.15	5
0	35680	10.15	3
0	35681	10.15	5
0	35682	10.15	8
0	35683	10.15	5
0	35684	10.15	3
0	35685	10.15	5
0	35686	10.15	3
0	35687	10.15	1
0	35688	10.15	1
0	35817	10.2	3
0	35818	10.2	5
0	35819	10.2	3
0	35820	10.2	5
0	35821	10.2	8
0	35822	10.2	5
0	35823	10.2	3
0	35824	10.2	5
0	35825	10.2	3
0	35826	10.2	1
0	35827	10.2	1
0	35831	10.2	3
0	35832	10.2	5
0	35833	10.2	3
0	35834	10.2	5
0	35835	10.2	8
0	35836	10.2	5
0	35837	10.2	3
0	35838	10.2	5
0	35839	10.2	3
0	35840	10.2	1
0	35841	10.2	1
0	35952	10.25	3
0	35953	10.25	5
0	35954	10.25	3
0	35955	10.25	5
0	35956	10.25	8
0	35957	10.25	5
0	35958	10.25	3
0	35959	10.25	5
0	35960	10.25	3
0	35961	10.25	1
0	35962	10.25	1
0	36051	10.3	3
0	36052	10.3	5
0	36053	10.3	3
0	36054	10.3	5
0	36055	10.3	8
0	36056	10.3	5
0	36057	10.3	3
0	36058	10.3	5
0	36059	10.3	3
0	36060	10.3	1
0	36061	10.3	1
0	36065	10.3	3
0	36066	10.3	5
0	36067	10.3	3
0	36068	10.3	5
0	36069	10.3	8
0	36070	10.3	5
0	36071	10.3	3
0	36072	10.3	5
0	36073	10.3	3
0	36074	10.3	1
0	36075	10.3	1
0	36232	10.35	3
0	36233	10.35	5
0	36234	10.35	3
0	36235	10.35	5
0	36236	10.35	8
0	36237	10.35	5
0	36238	10.35	3
0	36239	10.35	5
0	36240	10.35	3
0	36241	10.35	1
0	36242	10.35	1
0	36354	10.4	3
0	36355	10.4	5
0	36356	10.4	3
0	36357	10.4	5
0	36358	10.4	8
0	36359	10.4	5
0	36360	10.4	3
0	36361	10.4	5
0	36362	10.4	3
0	36363	10.4	1
0	36364	10.4	1
0	36368	10.4	3
0	36369	10.4	5
0	36370	10.4	3
0	36371	10.4	5
0	36372	10.4	8
0	36373	10.4	5
0	36374	10.4	3
0	36375	10.4	5
0	36376	10.4	3
0	36377	10.4	1
0	36378	10.4	1
0	36534	10.45	3
0	36535	10.45	5
0	36536	10.45	3
0	36537	10.45	5
0	36538	10.45	8
0	36539	10.45	5
0	36540	10.45	3
0	36541	10.45	5
0	36542	10.45	3
0	36543	10.45	1
0	36544	10.45	1
0	36972	10.5	3
0	36973	10.5	5
0	36974	10.5	3
0	36975	10.5	5
0	36976	10.5	8
0	36977	10.5	5
0	36978	10.5	3
0	36979	10.5	5
0	36980	10.5	3
0	36981	10.5	1
0	36982	10.5	1
0	36986	10.5	3
0	36987	10.5	5
0	36988	10.5	3
0	36989	10.5	5
0	36990	10.5	8
0	36991	10.5	5
0	36992	10.5	3
0	36993	10.5	5
0	36994	10.5	3
0	36995	10.5	1
0	36996	10.5	1
0	37153	10.55	3
0	37154	10.55	5
0	37155	10.55	3
0	37156	10.55	5
0	37157	10.55	8
0	37158	10.55	5
0	37159	10.55	3
0	37160	10.55	5
0	37161	10.55	3
0	37162	10.55	1
0	37163	10.55	1
0	37321	10.6	3
0	37322	10.6	5
0	37323	10.6	3
0	37324	10.6	5
0	37325	10.6	8
0	37326	10.6	5
0	37327	10.6	3
0	37328	10.6	5
0	37329	10.6	3
0	37330	10.6	1
0	37331	10.6	1
0	37335	10.6	3
0	37336	10.6	5
0	37337	10.6	3
0	37338	10.6	5
0	37339	10.6	8
0	37340	10.6	5
0	37341	10.6	3
0	37342	10.6	5
0	37343	10.6	3
0	37344	10.6	1
0	37345	10.6	1
0	37581	10.65	3
0	37582	10.65	5
0	37583	10.65	3
0	37584	10.65	5
0	37585	10.65	8
0	37586	10.65	5
0	37587	10.65	3
0	37588	10.65	5
0	37589	10.65	3
0	37590	10.65	1
0	37591	10.65	1
0	37703	10.7	3
0	37704	10.7	5
0	37705	10.7	3
0	37706	10.7	5
0	37707	10.7	8
0	37708	10.7	5
0	37709	10.7	3
0	37710	10.7	5
0	37711	10.7	3
0	37712	10.7	1
0	37713	10.7	1
0	37717	10.7	3
0	37718	10.7	5
0	37719	10.7	3
0	37720	10.7	5
0	37721	10.7	8
0	37722	10.7	5
0	37723	10.7	3
0	37724	10.7	5
0	37725	10.7	3
0	37726	10.7	1
0	37727	10.7	1
0	37878	10.75	3
0	37879	10.75	5
0	37880	10.75	3
0	37881	10.75	5
0	37882	10.75	8
0	37883	10.75	5
0	37884	10.75	3
0	37885	10.75	5
0	37886	10.75	3
0	37887	10.75	1
0	37888	10.75	1
0	37977	10.8	3
0	37978	10.8	5
0	37979	10.8	3
0	37980	10.8	5
0	37981	10.8	8
0	37982	10.8	5
0	37983	10.8	3
0	37984	10.8	5
0	37985	10.8	3
0	37986	10.8	1
0	37987	10.8	1
0	37991	10.8	3
0	37992	10.8	5
0	37993	10.8	3
0	37994	10.8	5
0	37995	10.8	8
0	37996	10.8	5
0	37997	10.8	3
0	37998	10.8	5
0	37999	10.8	3
0	38000	10.8	1
0	38001	10.8	1
0	38112	10.85	3
0	38113	10.85	5
0	38114	10.85	3
0	38115	10.85	5
0	38116	10.85	8
0	38117	10.85	5
0	38118	10.85	3
0	38119	10.85	5
0	38120	10.85	3
0	38121	10.85	1
0	38122	10.85	1
0	38239	10.9	3
0	38240	10.9	5
0	38241	10.9	3
0	38242	10.9	5
0	38243	10.9	8
0	38244	10.9	5
0	38245	10.9	3
0	38246	10.9	5
0	38247	10.9	3
0	38248	10.9	1
0	38249	10.9	1
0	38253	10.9	3
0	38254	10.9	5
0	38255	10.9	3
0	38256	10.9	5
0	38257	10.9	8
0	38258	10.9	5
0	38259	10.9	3
0	38260	10.9	5
0	38261	10.9	3
0	38262	10.9	1
0	38263	10.9	1
0	38397	10.95	3
0	38398	10.95	5
0	38399	10.95	3
0	38400	10.95	5
0	38401	10.95	8
0	38402	10.95	5
0	38403	10.95	3
0	38404	10.95	5
0	38405	10.95	3
0	38406	10.95	1
0	38407	10.95	1
0	38552	11	3
0	38553	11	5
0	38554	11	3
0	38555	11	5
0	38556	11	8
0	38557	11	5
0	38558	11	3
0	38559	11	5
0	38560	11	3
0	38561	11	1
0	38562	11	1
0	38566	11	3
0	38567	11	5
0	38568	11	3
0	38569	11	5
0	38570	11	8
0	38571	11	5
0	38572	11	3
0	38573	11	5
0	38574	11	3
0	38575	11	1
0	38576	11	1
0	39048	11.05	3
0	39049	11.05	5
0	39050	11.05	3
0	39051	11.05	5
0	39052	11.05	8
0	39053	11.05	5
0	39054	11.05	3
0	39055	11.05	5
0	39056	11.05	3
0	39057	11.05	1
0	39058	11.05	1
0	39385	11.1	3
0	39386	11.1	5
0	39387	11.1	3
0	39388	11.1	5
0	39389	11.1	8
0	39390	11.1	5
0	39391	11.1	3
0	39392	11.1	5
0	39393	11.1	3
0	39394	11.1	1
0	39395	11.1	1
0	39399	11.1	3
0	39400	11.1	5
0	39401	11.1	3
0	39402	11.1	5
0	39403	11.1	8
0	39404	11.1	5
0	39405	11.1	3
0	39406	11.1	5
0	39407	11.1	3
0	39408	11.1	1
0	39409	11.1	1
0	39792	11.15	3
0	39793	11.15	5
0	39794	11.15	3
0	39795	11.15	5
0	39796	11.15	8
0	39797	11.15	5
0	39798	11.15	3
0	39799	11.15	5
0	39800	11.15	3
0	39801	11.15	1
0	39802	11.15	1
0	40093	11.2	3
0	40094	11.2	5
0	40095	11.2	3
0	40096	11.2	5
0	40097	11.2	8
0	40098	11.2	5
0	40099	11.2	3
0	40100	11.2	5
0	40101	11.2	3
0	40102	11.2	1
0	40103	11.2	1
0	40107	11.2	3
0	40108	11.2	5
0	40109	11.2	3
0	40110	11.2	5
0	40111	11.2	8
0	40112	11.2	5
0	40113	11.2	3
0	40114	11.2	5
0	40115	11.2	3
0	40116	11.2	1
0	40117	11.2	1
0	40432	11.25	3
0	40433	11.25	5
0	40434	11.25	3
0	40435	11.25	5
0	40436	11.25	8
0	40437	11.25	5
0	40438	11.25	3
0	40439	11.25	5
0	40440	11.25	3
0	40441	11.25	1
0	40442	11.25	1
0	40610	11.3	3
0	40611	11.3	5
0	40612	11.3	3
0	40613	11.3	5
0	40614	11.3	8
0	40615	11.3	5
0	40616	11.3	3
0	40617	11.3	5
0	40618	11.3	3
0	40619	11.3	1
0	40620	11.3	1
0	40624	11.3	3
0	40625	11.3	5
0	40626	11.3	3
0	40627	11.3	5
0	40628	11.3	8
0	40629	11.3	5
0	40630	11.3	3
0	40631	11.3	5
0	40632	11.3	3
0	40633	11.3	1
0	40634	11.3	1
0	40823	11.35	3
0	40824	11.35	5
0	40825	11.35	3
0	40826	11.35	5
0	40827	11.35	8
0	40828	11.35	5
0	40829	11.35	3
0	40830	11.35	5
0	40831	11.35	3
0	40832	11.35	1
0	40833	11.35	1
0	41002	11.4	3
0	41003	11.4	5
0	41004	11.4	3
0	41005	11.4	5
0	41006	11.4	8
0	41007	11.4	5
0	41008	11.4	3
0	41009	11.4	5
0	41010	11.4	3
0	41011	11.4	1
0	41012	11.4	1
0	41016	11.4	3
0	41017	11.4	5
0	41018	11.4	3
0	41019	11.4	5
0	41020	11.4	8
0	41021	11.4	5
0	41022	11.4	3
0	41023	11.4	5
0	41024	11.4	3
0	41025	11.4	1
0	41026	11.4	1
0	41196	11.45	3
0	41197	11.45	5
0	41198	11.45	3
0	41199	11.45	5
0	41200	11.45	8
0	41201	11.45	5
0	41202	11.45	3
0	41203	11.45	5
0	41204	11.45	3
0	41205	11.45	1
0	41206	11.45	1
0	41318	11.5	3
0	41319	11.5	5
0	41320	11.5	3
0	41321	11.5	5
0	41322	11.5	8
0	41323	11.5	5
0	41324	11.5	3
0	41325	11.5	5
0	41326	11.5	3
0	41327	11.5	1
0	41328	11.5	1
0	41332	11.5	3
0	41333	11.5	5
0	41334	11.5	3
0	41335	11.5	5
0	41336	11.5	8
0	41337	11.5	5
0	41338	11.5	3
0	41339	11.5	5
0	41340	11.5	3
0	41341	11.5	1
0	41342	11.5	1
0	41557	11.55	3
0	41558	11.55	5
0	41559	11.55	3
0	41560	11.55	5
0	41561	11.55	8
0	41562	11.55	5
0	41563	11.55	3
0	41564	11.55	5
0	41565	11.55	3
0	41566	11.55	1
0	41567	11.55	1
0	41989	11.6	3
0	41990	11.6	5
0	41991	11.6	3
0	41992	11.6	5
0	41993	11.6	8
0	41994	11.6	5
0	41995	11.6	3
0	41996	11.6	5
0	41997	11.6	3
0	41998	11.6	1
0	41999	11.6	1
0	42003	11.6	3
0	42004	11.6	5
0	42005	11.6	3
0	42006	11.6	5
0	42007	11.6	8
0	42008	11.6	5
0	42009	11.6	3
0	42010	11.6	5
0	42011	11.6	3
0	42012	11.6	1
0	42013	11.6	1
0	42264	11.65	3
0	42265	11.65	5
0	42266	11.65	3
0	42267	11.65	5
0	42268	11.65	8
0	42269	11.65	5
0	42270	11.65	3
0	42271	11.65	5
0	42272	11.65	3
0	42273	11.65	1
0	42274	11.65	1
0	42489	11.7	3
0	42490	11.7	5
0	42491	11.7	3
0	42492	11.7	5
0	42493	11.7	8
0	42494	11.7	5
0	42495	11.7	3
0	42496	11.7	5
0	42497	11.7	3
0	42498	11.7	1
0	42499	11.7	1
0	42503	11.7	3
0	42504	11.7	5
0	42505	11.7	3
0	42506	11.7	5
0	42507	11.7	8
0	42508	11.7	5
0	42509	11.7	3
0	42510	11.7	5
0	42511	11.7	3
0	42512	11.7	1
0	42513	11.7	1
0	42780	11.75	3
0	42781	11.75	5
0	42782	11.75	3
0	42783	11.75	5
0	42784	11.75	8
0	42785	11.75	5
0	42786	11.75	3
0	42787	11.75	5
0	42788	11.75	3
0	42789	11.75	1
0	42790	11.75	1
0	42902	11.8	3
0	42903	11.8	5
0	42904	11.8	3
0	42905	11.8	5
0	42906	11.8	8
0	42907	11.8	5
0	42908	11.8	3
0	42909	11.8	5
0	42910	11.8	3
0	42911	11.8	1
0	42912	11.8	1
0	42916	11.8	3
0	42917	11.8	5
0	42918	11.8	3
0	42919	11.8	5
0	42920	11.8	8
0	42921	11.8	5
0	42922	11.8	3
0	42923	11.8	5
0	42924	11.8	3
0	42925	11.8	1
0	42926	11.8	1
0	43060	11.85	3
0	43061	11.85	5
0	43062	11.85	3
0	43063	11.85	5
0	43064	11.85	8
0	43065	11.85	5
0	43066	11.85	3
0	43067	11.85	5
0	43068	11.85	3
0	43069	11.85	1
0	43070	11.85	1
0	43182	11.9	3
0	43183	11.9	5
0	43184	11.9	3
0	43185	11.9	5
0	43186	11.9	8
0	43187	11.9	5
0	43188	11.9	3
0	43189	11.9	5
0	43190	11.9	3
0	43191	11.9	1
0	43192	11.9	1
0	43196	11.9	3
0	43197	11.9	5
0	43198	11.9	3
0	43199	11.9	5
0	43200	11.9	8
0	43201	11.9	5
0	43202	11.9	3
0	43203	11.9	5
0	43204	11.9	3
0	43205	11.9	1
0	43206	11.9	1
0	43322	11.95	3
0	43323	11.95	5
0	43324	11.95	3
0	43325	11.95	5
0	43326	11.95	8
0	43327	11.95	5
0	43328	11.95	3
0	43329	11.95	5
0	43330	11.95	3
0	43331	11.95	1
0	43332	11.95	1
0	43455	12	3
0	43456	12	5
0	43457	12	3
0	43458	12	5
0	43459	12	8
0	43460	12	5
0	43461	12	3
0	43462	12	5
0	43463	12	3
0	43464	12	1
0	43465	12	1
0	43469	12	3
0	43470	12	5
0	43471	12	3
0	43472	12	5
0	43473	12	8
0	43474	12	5
0	43475	12	3
0	43476	12	5
0	43477	12	3
0	43478	12	1
0	43479	12	1
0	43613	12.05	3
0	43614	12.05	5
0	43615	12.05	3
0	43616	12.05	5
0	43617	12.05	8
0	43618	12.05	5
0	43619	12.05	3
0	43620	12.05	5
0	43621	12.05	3
0	43622	12.05	1
0	43623	12.05	1
0	43918	12.1	3
0	43919	12.1	5
0	43920	12.1	3
0	43921	12.1	5
0	43922	12.1	8
0	43923	12.1	5
0	43924	12.1	3
0	43925	12.1	5
0	43926	12.1	3
0	43927	12.1	1
0	43928	12.1	1
0	43932	12.1	3
0	43933	12.1	5
0	43934	12.1	3
0	43935	12.1	5
0	43936	12.1	8
0	43937	12.1	5
0	43938	12.1	3
0	43939	12.1	5
0	43940	12.1	3
0	43941	12.1	1
0	43942	12.1	1
0	44390	12.15	3
0	44391	12.15	5
0	44392	12.15	3
0	44393	12.15	5
0	44394	12.15	8
0	44395	12.15	5
0	44396	12.15	3
0	44397	12.15	5
0	44398	12.15	3
0	44399	12.15	1
0	44400	12.15	1
0	44658	12.2	3
0	44659	12.2	5
0	44660	12.2	3
0	44661	12.2	5
0	44662	12.2	8
0	44663	12.2	5
0	44664	12.2	3
0	44665	12.2	5
0	44666	12.2	3
0	44667	12.2	1
0	44668	12.2	1
0	44672	12.2	3
0	44673	12.2	5
0	44674	12.2	3
0	44675	12.2	5
0	44676	12.2	8
0	44677	12.2	5
0	44678	12.2	3
0	44679	12.2	5
0	44680	12.2	3
0	44681	12.2	1
0	44682	12.2	1
0	44963	12.25	3
0	44964	12.25	5
0	44965	12.25	3
0	44966	12.25	5
0	44967	12.25	8
0	44968	12.25	5
0	44969	12.25	3
0	44970	12.25	5
0	44971	12.25	3
0	44972	12.25	1
0	44973	12.25	1
0	45252	12.3	3
0	45253	12.3	5
0	45254	12.3	3
0	45255	12.3	5
0	45256	12.3	8
0	45257	12.3	5
0	45258	12.3	3
0	45259	12.3	5
0	45260	12.3	3
0	45261	12.3	1
0	45262	12.3	1
0	45266	12.3	3
0	45267	12.3	5
0	45268	12.3	3
0	45269	12.3	5
0	45270	12.3	8
0	45271	12.3	5
0	45272	12.3	3
0	45273	12.3	5
0	45274	12.3	3
0	45275	12.3	1
0	45276	12.3	1
0	45451	12.35	3
0	45452	12.35	5
0	45453	12.35	3
0	45454	12.35	5
0	45455	12.35	8
0	45456	12.35	5
0	45457	12.35	3
0	45458	12.35	5
0	45459	12.35	3
0	45460	12.35	1
0	45461	12.35	1
0	45658	12.4	3
0	45659	12.4	5
0	45660	12.4	3
0	45661	12.4	5
0	45662	12.4	8
0	45663	12.4	5
0	45664	12.4	3
0	45665	12.4	5
0	45666	12.4	3
0	45667	12.4	1
0	45668	12.4	1
0	45672	12.4	3
0	45673	12.4	5
0	45674	12.4	3
0	45675	12.4	5
0	45676	12.4	8
0	45677	12.4	5
0	45678	12.4	3
0	45679	12.4	5
0	45680	12.4	3
0	45681	12.4	1
0	45682	12.4	1
0	45875	12.45	3
0	45876	12.45	5
0	45877	12.45	3
0	45878	12.45	5
0	45879	12.45	8
0	45880	12.45	5
0	45881	12.45	3
0	45882	12.45	5
0	45883	12.45	3
0	45884	12.45	1
0	45885	12.45	1
0	45977	12.5	3
0	45978	12.5	5
0	45979	12.5	3
0	45980	12.5	5
0	45981	12.5	8
0	45982	12.5	5
0	45983	12.5	3
0	45984	12.5	5
0	45985	12.5	3
0	45986	12.5	1
0	45987	12.5	1
0	45991	12.5	3
0	45992	12.5	5
0	45993	12.5	3
0	45994	12.5	5
0	45995	12.5	8
0	45996	12.5	5
0	45997	12.5	3
0	45998	12.5	5
0	45999	12.5	3
0	46000	12.5	1
0	46001	12.5	1
0	46129	12.55	3
0	46130	12.55	5
0	46131	12.55	3
0	46132	12.55	5
0	46133	12.55	8
0	46134	12.55	5
0	46135	12.55	3
0	46136	12.55	5
0	46137	12.55	3
0	46138	12.55	1
0	46139	12.55	1
0	46251	12.6	3
0	46252	12.6	5
0	46253	12.6	3
0	46254	12.6	5
0	46255	12.6	8
0	46256	12.6	5
0	46257	12.6	3
0	46258	12.6	5
0	46259	12.6	3
0	46260	12.6	1
0	46261	12.6	1
0	46265	12.6	3
0	46266	12.6	5
0	46267	12.6	3
0	46268	12.6	5
0	46269	12.6	8
0	46270	12.6	5
0	46271	12.6	3
0	46272	12.6	5
0	46273	12.6	3
0	46274	12.6	1
0	46275	12.6	1
0	46538	12.65	3
0	46539	12.65	5
0	46540	12.65	3
0	46541	12.65	5
0	46542	12.65	8
0	46543	12.65	5
0	46544	12.65	3
0	46545	12.65	5
0	46546	12.65	3
0	46547	12.65	1
0	46548	12.65	1
0	46848	12.7	3
0	46849	12.7	5
0	46850	12.7	3
0	46851	12.7	5
0	46852	12.7	8
0	46853	12.7	5
0	46854	12.7	3
0	46855	12.7	5
0	46856	12.7	3
0	46857	12.7	1
0	46858	12.7	1
0	46862	12.7	3
0	46863	12.7	5
0	46864	12.7	3
0	46865	12.7	5
0	46866	12.7	8
0	46867	12.7	5
0	46868	12.7	3
0	46869	12.7	5
0	46870	12.7	3
0	46871	12.7	1
0	46872	12.7	1
0	47073	12.75	3
0	47074	12.75	5
0	47075	12.75	3
0	47076	12.75	5
0	47077	12.75	8
0	47078	12.75	5
0	47079	12.75	3
0	47080	12.75	5
0	47081	12.75	3
0	47082	12.75	1
0	47083	12.75	1
0	47327	12.8	3
0	47328	12.8	5
0	47329	12.8	3
0	47330	12.8	5
0	47331	12.8	8
0	47332	12.8	5
0	47333	12.8	3
0	47334	12.8	5
0	47335	12.8	3
0	47336	12.8	1
0	47337	12.8	1
0	47341	12.8	3
0	47342	12.8	5
0	47343	12.8	3
0	47344	12.8	5
0	47345	12.8	8
0	47346	12.8	5
0	47347	12.8	3
0	47348	12.8	5
0	47349	12.8	3
0	47350	12.8	1
0	47351	12.8	1
0	47591	12.85	3
0	47592	12.85	5
0	47593	12.85	3
0	47594	12.85	5
0	47595	12.85	8
0	47596	12.85	5
0	47597	12.85	3
0	47598	12.85	5
0	47599	12.85	3
0	47600	12.85	1
0	47601	12.85	1
0	47755	12.9	3
0	47756	12.9	5
0	47757	12.9	3
0	47758	12.9	5
0	47759	12.9	8
0	47760	12.9	5
0	47761	12.9	3
0	47762	12.9	5
0	47763	12.9	3
0	47764	12.9	1
0	47765	12.9	1
0	47769	12.9	3
0	47770	12.9	5
0	47771	12.9	3
0	47772	12.9	5
0	47773	12.9	8
0	47774	12.9	5
0	47775	12.9	3
0	47776	12.9	5
0	47777	12.9	3
0	47778	12.9	1
0	47779	12.9	1
0	47913	12.95	3
0	47914	12.95	5
0	47915	12.95	3
0	47916	12.95	5
0	47917	12.95	8
0	47918	12.95	5
0	47919	12.95	3
0	47920	12.95	5
0	47921	12.95	3
0	47922	12.95	1
0	47923	12.95	1
0	48063	13	3
0	48064	13	5
0	48065	13	3
0	48066	13	5
0	48067	13	8
0	48068	13	5
0	48069	13	3
0	48070	13	5
0	48071	13	3
0	48072	13	1
0	48073	13	1
0	48077	13	3
0	48078	13	5
0	48079	13	3
0	48080	13	5
0	48081	13	8
0	48082	13	5
0	48083	13	3
0	48084	13	5
0	48085	13	3
0	48086	13	1
0	48087	13	1
0	48198	13.05	3
0	48199	13.05	5
0	48200	13.05	3
0	48201	13.05	5
0	48202	13.05	8
0	48203	13.05	5
0	48204	13.05	3
0	48205	13.05	5
0	48206	13.05	3
0	48207	13.05	1
0	48208	13.05	1
0	48331	13.1	3
0	48332	13.1	5
0	48333	13.1	3
0	48334	13.1	5
0	48335	13.1	8
0	48336	13.1	5
0	48337	13.1	3
0	48338	13.1	5
0	48339	13.1	3
0	48340	13.1	1
0	48341	13.1	1
0	48345	13.1	3
0	48346	13.1	5
0	48347	13.1	3
0	48348	13.1	5
0	48349	13.1	8
0	48350	13.1	5
0	48351	13.1	3
0	48352	13.1	5
0	48353	13.1	3
0	48354	13.1	1
0	48355	13.1	1
0	48507	13.15	3
0	48508	13.15	5
0	48509	13.15	3
0	48510	13.15	5
0	48511	13.15	8
0	48512	13.15	5
0	48513	13.15	3
0	48514	13.15	5
0	48515	13.15	3
0	48516	13.15	1
0	48517	13.15	1
0	48737	13.2	3
0	48738	13.2	5
0	48739	13.2	3
0	48740	13.2	5
0	48741	13.2	8
0	48742	13.2	5
0	48743	13.2	3
0	48744	13.2	5
0	48745	13.2	3
0	48746	13.2	1
0	48747	13.2	1
0	48751	13.2	3
0	48752	13.2	5
0	48753	13.2	3
0	48754	13.2	5
0	48755	13.2	8
0	48756	13.2	5
0	48757	13.2	3
0	48758	13.2	5
0	48759	13.2	3
0	48760	13.2	1
0	48761	13.2	1
0	49055	13.25	3
0	49056	13.25	5
0	49057	13.25	3
0	49058	13.25	5
0	49059	13.25	8
0	49060	13.25	5
0	49061	13.25	3
0	49062	13.25	5
0	49063	13.25	3
0	49064	13.25	1
0	49065	13.25	1
0	49224	13.3	3
0	49225	13.3	5
0	49226	13.3	3
0	49227	13.3	5
0	49228	13.3	8
0	49229	13.3	5
0	49230	13.3	3
0	49231	13.3	5
0	49232	13.3	3
0	49233	13.3	1
0	49234	13.3	1
0	49238	13.3	3
0	49239	13.3	5
0	49240	13.3	3
0	49241	13.3	5
0	49242	13.3	8
0	49243	13.3	5
0	49244	13.3	3
0	49245	13.3	5
0	49246	13.3	3
0	49247	13.3	1
0	49248	13.3	1
0	49473	13.35	3
0	49474	13.35	5
0	49475	13.35	3
0	49476	13.35	5
0	49477	13.35	8
0	49478	13.35	5
0	49479	13.35	3
0	49480	13.35	5
0	49481	13.35	3
0	49482	13.35	1
0	49483	13.35	1
0	49646	13.4	3
0	49647	13.4	5
0	49648	13.4	3
0	49649	13.4	5
0	49650	13.4	8
0	49651	13.4	5
0	49652	13.4	3
0	49653	13.4	5
0	49654	13.4	3
0	49655	13.4	1
0	49656	13.4	1
0	49660	13.4	3
0	49661	13.4	5
0	49662	13.4	3
0	49663	13.4	5
0	49664	13.4	8
0	49665	13.4	5
0	49666	13.4	3
0	49667	13.4	5
0	49668	13.4	3
0	49669	13.4	1
0	49670	13.4	1
0	49804	13.45	3
0	49805	13.45	5
0	49806	13.45	3
0	49807	13.45	5
0	49808	13.45	8
0	49809	13.45	5
0	49810	13.45	3
0	49811	13.45	5
0	49812	13.45	3
0	49813	13.45	1
0	49814	13.45	1
0	49926	13.5	3
0	49927	13.5	5
0	49928	13.5	3
0	49929	13.5	5
0	49930	13.5	8
0	49931	13.5	5
0	49932	13.5	3
0	49933	13.5	5
0	49934	13.5	3
0	49935	13.5	1
0	49936	13.5	1
0	49940	13.5	3
0	49941	13.5	5
0	49942	13.5	3
0	49943	13.5	5
0	49944	13.5	8
0	49945	13.5	5
0	49946	13.5	3
0	49947	13.5	5
0	49948	13.5	3
0	49949	13.5	1
0	49950	13.5	1
0	50112	13.55	3
0	50113	13.55	5
0	50114	13.55	3
0	50115	13.55	5
0	50116	13.55	8
0	50117	13.55	5
0	50118	13.55	3
0	50119	13.55	5
0	50120	13.55	3
0	50121	13.55	1
0	50122	13.55	1
0	50211	13.6	3
0	50212	13.6	5
0	50213	13.6	3
0	50214	13.6	5
0	50215	13.6	8
0	50216	13.6	5
0	50217	13.6	3
0	50218	13.6	5
0	50219	13.6	3
0	50220	13.6	1
0	50221	13.6	1
0	50225	13.6	3
0	50226	13.6	5
0	50227	13.6	3
0	50228	13.6	5
0	50229	13.6	8
0	50230	13.6	5
0	50231	13.6	3
0	50232	13.6	5
0	50233	13.6	3
0	50234	13.6	1
0	50235	13.6	1
0	50363	13.65	3
0	50364	13.65	5
0	50365	13.65	3
0	50366	13.65	5
0	50367	13.65	8
0	50368	13.65	5
0	50369	13.65	3
0	50370	13.65	5
0	50371	13.65	3
0	50372	13.65	1
0	50373	13.65	1
0	50508	13.7	3
0	50509	13.7	5
0	50510	13.7	3
0	50511	13.7	5
0	50512	13.7	8
0	50513	13.7	5
0	50514	13.7	3
0	50515	13.7	5
0	50516	13.7	3
0	50517	13.7	1
0	50518	13.7	1
0	50522	13.7	3
0	50523	13.7	5
0	50524	13.7	3
0	50525	13.7	5
0	50526	13.7	8
0	50527	13.7	5
0	50528	13.7	3
0	50529	13.7	5
0	50530	13.7	3
0	50531	13.7	1
0	50532	13.7	1
0	50841	13.75	3
0	50842	13.75	5
0	50843	13.75	3
0	50844	13.75	5
0	50845	13.75	8
0	50846	13.75	5
0	50847	13.75	3
0	50848	13.75	5
0	50849	13.75	3
0	50850	13.75	1
0	50851	13.75	1
0	51181	13.8	3
0	51182	13.8	5
0	51183	13.8	3
0	51184	13.8	5
0	51185	13.8	8
0	51186	13.8	5
0	51187	13.8	3
0	51188	13.8	5
0	51189	13.8	3
0	51190	13.8	1
0	51191	13.8	1
0	51195	13.8	3
0	51196	13.8	5
0	51197	13.8	3
0	51198	13.8	5
0	51199	13.8	8
0	51200	13.8	5
0	51201	13.8	3
0	51202	13.8	5
0	51203	13.8	3
0	51204	13.8	1
0	51205	13.8	1
0	51367	13.85	3
0	51368	13.85	5
0	51369	13.85	3
0	51370	13.85	5
0	51371	13.85	8
0	51372	13.85	5
0	51373	13.85	3
0	51374	13.85	5
0	51375	13.85	3
0	51376	13.85	1
0	51377	13.85	1
0	51607	13.9	3
0	51608	13.9	5
0	51609	13.9	3
0	51610	13.9	5
0	51611	13.9	8
0	51612	13.9	5
0	51613	13.9	3
0	51614	13.9	5
0	51615	13.9	3
0	51616	13.9	1
0	51617	13.9	1
0	51621	13.9	3
0	51622	13.9	5
0	51623	13.9	3
0	51624	13.9	5
0	51625	13.9	8
0	51626	13.9	5
0	51627	13.9	3
0	51628	13.9	5
0	51629	13.9	3
0	51630	13.9	1
0	51631	13.9	1
0	51864	13.95	3
0	51865	13.95	5
0	51866	13.95	3
0	51867	13.95	5
0	51868	13.95	8
0	51869	13.95	5
0	51870	13.95	3
0	51871	13.95	5
0	51872	13.95	3
0	51873	13.95	1
0	51874	13.95	1
0	52040	14	3
0	52041	14	5
0	52042	14	3
0	52043	14	5
0	52044	14	8
0	52045	14	5
0	52046	14	3
0	52047	14	5
0	52048	14	3
0	52049	14	1
0	52050	14	1
0	52054	14	3
0	52055	14	5
0	52056	14	3
0	52057	14	5
0	52058	14	8
0	52059	14	5
0	52060	14	3
0	52061	14	5
0	52062	14	3
0	52063	14	1
0	52064	14	1
0	52221	14.05	3
0	52222	14.05	5
0	52223	14.05	3
0	52224	14.05	5
0	52225	14.05	8
0	52226	14.05	5
0	52227	14.05	3
0	52228	14.05	5
0	52229	14.05	3
0	52230	14.05	1
0	52231	14.05	1
0	52377	14.1	3
0	52378	14.1	5
0	52379	14.1	3
0	52380	14.1	5
0	52381	14.1	8
0	52382	14.1	5
0	52383	14.1	3
0	52384	14.1	5
0	52385	14.1	3
0	52386	14.1	1
0	52387	14.1	1
0	52391	14.1	3
0	52392	14.1	5
0	52393	14.1	3
0	52394	14.1	5
0	52395	14.1	8
0	52396	14.1	5
0	52397	14.1	3
0	52398	14.1	5
0	52399	14.1	3
0	52400	14.1	1
0	52401	14.1	1
0	52542	14.15	3
0	52543	14.15	5
0	52544	14.15	3
0	52545	14.15	5
0	52546	14.15	8
0	52547	14.15	5
0	52548	14.15	3
0	52549	14.15	5
0	52550	14.15	3
0	52551	14.15	1
0	52552	14.15	1
0	52658	14.2	3
0	52659	14.2	5
0	52660	14.2	3
0	52661	14.2	5
0	52662	14.2	8
0	52663	14.2	5
0	52664	14.2	3
0	52665	14.2	5
0	52666	14.2	3
0	52667	14.2	1
0	52668	14.2	1
0	52672	14.2	3
0	52673	14.2	5
0	52674	14.2	3
0	52675	14.2	5
0	52676	14.2	8
0	52677	14.2	5
0	52678	14.2	3
0	52679	14.2	5
0	52680	14.2	3
0	52681	14.2	1
0	52682	14.2	1
0	52850	14.25	3
0	52851	14.25	5
0	52852	14.25	3
0	52853	14.25	5
0	52854	14.25	8
0	52855	14.25	5
0	52856	14.25	3
0	52857	14.25	5
0	52858	14.25	3
0	52859	14.25	1
0	52860	14.25	1
0	53163	14.3	3
0	53164	14.3	5
0	53165	14.3	3
0	53166	14.3	5
0	53167	14.3	8
0	53168	14.3	5
0	53169	14.3	3
0	53170	14.3	5
0	53171	14.3	3
0	53172	14.3	1
0	53173	14.3	1
0	53177	14.3	3
0	53178	14.3	5
0	53179	14.3	3
0	53180	14.3	5
0	53181	14.3	8
0	53182	14.3	5
0	53183	14.3	3
0	53184	14.3	5
0	53185	14.3	3
0	53186	14.3	1
0	53187	14.3	1
0	53507	14.35	3
0	53508	14.35	5
0	53509	14.35	3
0	53510	14.35	5
0	53511	14.35	8
0	53512	14.35	5
0	53513	14.35	3
0	53514	14.35	5
0	53515	14.35	3
0	53516	14.35	1
0	53517	14.35	1
0	53737	14.4	3
0	53738	14.4	5
0	53739	14.4	3
0	53740	14.4	5
0	53741	14.4	8
0	53742	14.4	5
0	53743	14.4	3
0	53744	14.4	5
0	53745	14.4	3
0	53746	14.4	1
0	53747	14.4	1
0	53751	14.4	3
0	53752	14.4	5
0	53753	14.4	3
0	53754	14.4	5
0	53755	14.4	8
0	53756	14.4	5
0	53757	14.4	3
0	53758	14.4	5
0	53759	14.4	3
0	53760	14.4	1
0	53761	14.4	1
0	54058	14.45	3
0	54059	14.45	5
0	54060	14.45	3
0	54061	14.45	5
0	54062	14.45	8
0	54063	14.45	5
0	54064	14.45	3
0	54065	14.45	5
0	54066	14.45	3
0	54067	14.45	1
0	54068	14.45	1
0	54360	14.5	3
0	54361	14.5	5
0	54362	14.5	3
0	54363	14.5	5
0	54364	14.5	8
0	54365	14.5	5
0	54366	14.5	3
0	54367	14.5	5
0	54368	14.5	3
0	54369	14.5	1
0	54370	14.5	1
0	54374	14.5	3
0	54375	14.5	5
0	54376	14.5	3
0	54377	14.5	5
0	54378	14.5	8
0	54379	14.5	5
0	54380	14.5	3
0	54381	14.5	5
0	54382	14.5	3
0	54383	14.5	1
0	54384	14.5	1
0	54571	14.55	3
0	54572	14.55	5
0	54573	14.55	3
0	54574	14.55	5
0	54575	14.55	8
0	54576	14.55	5
0	54577	14.55	3
0	54578	14.55	5
0	54579	14.55	3
0	54580	14.55	1
0	54581	14.55	1
0	54781	14.6	3
0	54782	14.6	5
0	54783	14.6	3
0	54784	14.6	5
0	54785	14.6	8
0	54786	14.6	5
0	54787	14.6	3
0	54788	14.6	5
0	54789	14.6	3
0	54790	14.6	1
0	54791	14.6	1
0	54795	14.6	3
0	54796	14.6	5
0	54797	14.6	3
0	54798	14.6	5
0	54799	14.6	8
0	54800	14.6	5
0	54801	14.6	3
0	54802	14.6	5
0	54803	14.6	3
0	54804	14.6	1
0	54805	14.6	1
0	54974	14.65	3
0	54975	14.65	5
0	54976	14.65	3
0	54977	14.65	5
0	54978	14.65	8
0	54979	14.65	5
0	54980	14.65	3
0	54981	14.65	5
0	54982	14.65	3
0	54983	14.65	1
0	54984	14.65	1
0	55096	14.7	3
0	55097	14.7	5
0	55098	14.7	3
0	55099	14.7	5
0	55100	14.7	8
0	55101	14.7	5
0	55102	14.7	3
0	55103	14.7	5
0	55104	14.7	3
0	55105	14.7	1
0	55106	14.7	1
0	55110	14.7	3
0	55111	14.7	5
0	55112	14.7	3
0	55113	14.7	5
0	55114	14.7	8
0	55115	14.7	5
0	55116	14.7	3
0	55117	14.7	5
0	55118	14.7	3
0	55119	14.7	1
0	55120	14.7	1
0	55248	14.75	3
0	55249	14.75	5
0	55250	14.75	3
0	55251	14.75	5
0	55252	14.75	8
0	55253	14.75	5
0	55254	14.75	3
0	55255	14.75	5
0	55256	14.75	3
0	55257	14.75	1
0	55258	14.75	1
0	55398	14.8	3
0	55399	14.8	5
0	55400	14.8	3
0	55401	14.8	5
0	55402	14.8	8
0	55403	14.8	5
0	55404	14.8	3
0	55405	14.8	5
0	55406	14.8	3
0	55407	14.8	1
0	55408	14.8	1
0	55412	14.8	3
0	55413	14.8	5
0	55414	14.8	3
0	55415	14.8	5
0	55416	14.8	8
0	55417	14.8	5
0	55418	14.8	3
0	55419	14.8	5
0	55420	14.8	3
0	55421	14.8	1
0	55422	14.8	1
0	55676	14.85	3
0	55677	14.85	5
0	55678	14.85	3
0	55679	14.85	5
0	55680	14.85	8
0	55681	14.85	5
0	55682	14.85	3
0	55683	14.85	5
0	55684	14.85	3
0	55685	14.85	1
0	55686	14.85	1
0	55884	14.9	3
0	55885	14.9	5
0	55886	14.9	3
0	55887	14.9	5
0	55888	14.9	8
0	55889	14.9	5
0	55890	14.9	3
0	55891	14.9	5
0	55892	14.9	3
0	55893	14.9	1
0	55894	14.9	1
0	55898	14.9	3
0	55899	14.9	5
0	55900	14.9	3
0	55901	14.9	5
0	55902	14.9	8
0	55903	14.9	5
0	55904	14.9	3
0	55905	14.9	5
0	55906	14.9	3
0	55907	14.9	1
0	55908	14.9	1
0	56093	14.95	3
0	56094	14.95	5
0	56095	14.95	3
0	56096	14.95	5
0	56097	14.95	8
0	56098	14.95	5
0	56099	14.95	3
0	56100	14.95	5
0	56101	14.95	3
0	56102	14.95	1
0	56103	14.95	1
0	56326	15	3
0	56327	15	5
0	56328	15	3
0	56329	15	5
0	56330	15	8
0	56331	15	5
0	56332	15	3
0	56333	15	5
0	56334	15	3
0	56335	15	1
0	56336	15	1
0	56340	15	3
0	56341	15	5
0	56342	15	3
0	56343	15	5
0	56344	15	8
0	56345	15	5
0	56346	15	3
0	56347	15	5
0	56348	15	3
0	56349	15	1
0	56350	15	1
0	56533	15.05	3
0	56534	15.05	5
0	56535	15.05	3
0	56536	15.05	5
0	56537	15.05	8
0	56538	15.05	5
0	56539	15.05	3
0	56540	15.05	5
0	56541	15.05	3
0	56542	15.05	1
0	56543	15.05	1
0	56689	15.1	3
0	56690	15.1	5
0	56691	15.1	3
0	56692	15.1	5
0	56693	15.1	8
0	56694	15.1	5
0	56695	15.1	3
0	56696	15.1	5
0	56697	15.1	3
0	56698	15.1	1
0	56699	15.1	1
0	56703	15.1	3
0	56704	15.1	5
0	56705	15.1	3
0	56706	15.1	5
0	56707	15.1	8
0	56708	15.1	5
0	56709	15.1	3
0	56710	15.1	5
0	56711	15.1	3
0	56712	15.1	1
0	56713	15.1	1
0	56888	15.15	3
0	56889	15.15	5
0	56890	15.15	3
0	56891	15.15	5
0	56892	15.15	8
0	56893	15.15	5
0	56894	15.15	3
0	56895	15.15	5
0	56896	15.15	3
0	56897	15.15	1
0	56898	15.15	1
0	57010	15.2	3
0	57011	15.2	5
0	57012	15.2	3
0	57013	15.2	5
0	57014	15.2	8
0	57015	15.2	5
0	57016	15.2	3
0	57017	15.2	5
0	57018	15.2	3
0	57019	15.2	1
0	57020	15.2	1
0	57024	15.2	3
0	57025	15.2	5
0	57026	15.2	3
0	57027	15.2	5
0	57028	15.2	8
0	57029	15.2	5
0	57030	15.2	3
0	57031	15.2	5
0	57032	15.2	3
0	57033	15.2	1
0	57034	15.2	1
0	57168	15.25	3
0	57169	15.25	5
0	57170	15.25	3
0	57171	15.25	5
0	57172	15.25	8
0	57173	15.25	5
0	57174	15.25	3
0	57175	15.25	5
0	57176	15.25	3
0	57177	15.25	1
0	57178	15.25	1
0	57290	15.3	3
0	57291	15.3	5
0	57292	15.3	3
0	57293	15.3	5
0	57294	15.3	8
0	57295	15.3	5
0	57296	15.3	3
0	57297	15.3	5
0	57298	15.3	3
0	57299	15.3	1
0	57300	15.3	1
0	57304	15.3	3
0	57305	15.3	5
0	57306	15.3	3
0	57307	15.3	5
0	57308	15.3	8
0	57309	15.3	5
0	57310	15.3	3
0	57311	15.3	5
0	57312	15.3	3
0	57313	15.3	1
0	57314	15.3	1
0	57465	15.35	3
0	57466	15.35	5
0	57467	15.35	3
0	57468	15.35	5
0	57469	15.35	8
0	57470	15.35	5
0	57471	15.35	3
0	57472	15.35	5
0	57473	15.35	3
0	57474	15.35	1
0	57475	15.35	1
0	57725	15.4	3
0	57726	15.4	5
0	57727	15.4	3
0	57728	15.4	5
0	57729	15.4	8
0	57730	15.4	5
0	57731	15.4	3
0	57732	15.4	5
0	57733	15.4	3
0	57734	15.4	1
0	57735	15.4	1
0	57739	15.4	3
0	57740	15.4	5
0	57741	15.4	3
0	57742	15.4	5
0	57743	15.4	8
0	57744	15.4	5
0	57745	15.4	3
0	57746	15.4	5
0	57747	15.4	3
0	57748	15.4	1
0	57749	15.4	1
0	58004	15.45	3
0	58005	15.45	5
0	58006	15.45	3
0	58007	15.45	5
0	58008	15.45	8
0	58009	15.45	5
0	58010	15.45	3
0	58011	15.45	5
0	58012	15.45	3
0	58013	15.45	1
0	58014	15.45	1
0	58187	15.5	3
0	58188	15.5	5
0	58189	15.5	3
0	58190	15.5	5
0	58191	15.5	8
0	58192	15.5	5
0	58193	15.5	3
0	58194	15.5	5
0	58195	15.5	3
0	58196	15.5	1
0	58197	15.5	1
0	58201	15.5	3
0	58202	15.5	5
0	58203	15.5	3
0	58204	15.5	5
0	58205	15.5	8
0	58206	15.5	5
0	58207	15.5	3
0	58208	15.5	5
0	58209	15.5	3
0	58210	15.5	1
0	58211	15.5	1
0	58446	15.55	3
0	58447	15.55	5
0	58448	15.55	3
0	58449	15.55	5
0	58450	15.55	8
0	58451	15.55	5
0	58452	15.55	3
0	58453	15.55	5
0	58454	15.55	3
0	58455	15.55	1
0	58456	15.55	1
0	58641	15.6	3
0	58642	15.6	5
0	58643	15.6	3
0	58644	15.6	5
0	58645	15.6	8
0	58646	15.6	5
0	58647	15.6	3
0	58648	15.6	5
0	58649	15.6	3
0	58650	15.6	1
0	58651	15.6	1
0	58655	15.6	3
0	58656	15.6	5
0	58657	15.6	3
0	58658	15.6	5
0	58659	15.6	8
0	58660	15.6	5
0	58661	15.6	3
0	58662	15.6	5
0	58663	15.6	3
0	58664	15.6	1
0	58665	15.6	1
0	58816	15.65	3
0	58817	15.65	5
0	58818	15.65	3
0	58819	15.65	5
0	58820	15.65	8
0	58821	15.65	5
0	58822	15.65	3
0	58823	15.65	5
0	58824	15.65	3
0	58825	15.65	1
0	58826	15.65	1
0	58955	15.7	3
0	58956	15.7	5
0	58957	15.7	3
0	58958	15.7	5
0	58959	15.7	8
0	58960	15.7	5
0	58961	15.7	3
0	58962	15.7	5
0	58963	15.7	3
0	58964	15.7	1
0	58965	15.7	1
0	58969	15.7	3
0	58970	15.7	5
0	58971	15.7	3
0	58972	15.7	5
0	58973	15.7	8
0	58974	15.7	5
0	58975	15.7	3
0	58976	15.7	5
0	58977	15.7	3
0	58978	15.7	1
0	58979	15.7	1
0	59113	15.75	3
0	59114	15.75	5
0	59115	15.75	3
0	59116	15.75	5
0	59117	15.75	8
0	59118	15.75	5
0	59119	15.75	3
0	59120	15.75	5
0	59121	15.75	3
0	59122	15.75	1
0	59123	15.75	1
0	59235	15.8	3
0	59236	15.8	5
0	59237	15.8	3
0	59238	15.8	5
0	59239	15.8	8
0	59240	15.8	5
0	59241	15.8	3
0	59242	15.8	5
0	59243	15.8	3
0	59244	15.8	1
0	59245	15.8	1
0	59249	15.8	3
0	59250	15.8	5
0	59251	15.8	3
0	59252	15.8	5
0	59253	15.8	8
0	59254	15.8	5
0	59255	15.8	3
0	59256	15.8	5
0	59257	15.8	3
0	59258	15.8	1
0	59259	15.8	1
0	59410	15.85	3
0	59411	15.85	5
0	59412	15.85	3
0	59413	15.85	5
0	59414	15.85	8
0	59415	15.85	5
0	59416	15.85	3
0	59417	15.85	5
0	59418	15.85	3
0	59419	15.85	1
0	59420	15.85	1
0	59537	15.9	3
0	59538	15.9	5
0	59539	15.9	3
0	59540	15.9	5
0	59541	15.9	8
0	59542	15.9	5
0	59543	15.9	3
0	59544	15.9	5
0	59545	15.9	3
0	59546	15.9	1
0	59547	15.9	1
0	59551	15.9	3
0	59552	15.9	5
0	59553	15.9	3
0	59554	15.9	5
0	59555	15.9	8
0	59556	15.9	5
0	59557	15.9	3
0	59558	15.9	5
0	59559	15.9	3
0	59560	15.9	1
0	59561	15.9	1
0	59792	15.95	3
0	59793	15.95	5
0	59794	15.95	3
0	59795	15.95	5
0	59796	15.95	8
0	59797	15.95	5
0	59798	15.95	3
0	59799	15.95	5
0	59800	15.95	3
0	59801	15.95	1
0	59802	15.95	1
0	60058	16	3
0	60059	16	5
0	60060	16	3
0	60061	16	5
0	60062	16	8
0	60063	16	5
0	60064	16	3
0	60065	16	5
0	60066	16	3
0	60067	16	1
0	60068	16	1
0	60072	16	3
0	60073	16	5
0	60074	16	3
0	60075	16	5
0	60076	16	8
0	60077	16	5
0	60078	16	3
0	60079	16	5
0	60080	16	3
0	60081	16	1
0	60082	16	1
0	60280	16.05	3
0	60281	16.05	5
0	60282	16.05	3
0	60283	16.05	5
0	60284	16.05	8
0	60285	16.05	5
0	60286	16.05	3
0	60287	16.05	5
0	60288	16.05	3
0	60289	16.05	1
0	60290	16.05	1
0	60601	16.1	3
0	60602	16.1	5
0	60603	16.1	3
0	60604	16.1	5
0	60605	16.1	8
0	60606	16.1	5
0	60607	16.1	3
0	60608	16.1	5
0	60609	16.1	3
0	60610	16.1	1
0	60611	16.1	1
0	60615	16.1	3
0	60616	16.1	5
0	60617	16.1	3
0	60618	16.1	5
0	60619	16.1	8
0	60620	16.1	5
0	60621	16.1	3
0	60622	16.1	5
0	60623	16.1	3
0	60624	16.1	1
0	60625	16.1	1
0	60849	16.15	3
0	60850	16.15	5
0	60851	16.15	3
0	60852	16.15	5
0	60853	16.15	8
0	60854	16.15	5
0	60855	16.15	3
0	60856	16.15	5
[...]
3	189754	50.283626728067	77691
3	190898	50.608384192201	77832
3	190997	50.622224192201	77973
3	191058	50.649904192201	78114
3	191173	50.65277835206	78255
3	191207	50.677584192201	78396
3	192070	50.93396899642	78537
3	192089	50.94780899642	78678
3	192215	50.96164899642	78819
3	192282	50.97548899642	78960
3	192301	50.98932899642	79101
3	192475	51.01700899642	79242
3	192498	51.03084899642	79383
3	192517	51.04468899642	79524
3	192896	51.143584192201	79665
3	193024	51.157424192201	79806
3	193111	51.171264192201	79947
3	193160	51.185104192201	80088
3	193333	51.20277835206	80229
3	193717	51.347466728067	80370
3	193914	51.383626728067	80511
3	195152	51.783626728067	80652
3	195377	51.833626728067	80793
3	195396	51.847466728067	80934
3	195546	51.883626728067	81075
3	195565	51.897466728067	81216
3	197004	52.30277835206	81357
3	197046	52.333626728067	81498
3	197235	52.383626728067	81639
3	197416	52.433626728067	81780
3	198306	52.743584192201	81921
3	198430	52.757424192201	82062
3	198503	52.771264192201	82203
3	199302	52.983626728067	82344
3	199320	52.988266728067	82485
3	199334	52.997466728067	82626
3	200324	53.293584192201	82767
3	200882	53.40277835206	82908
3	200927	53.433626728067	83049
3	201284	53.533626728067	83190
3	201286	53.533626728067	83331
3	201315	53.538266728067	83472
3	201437	53.552106728067	83613
3	202901	53.983626728067	83754
3	203610	54.18396899642	83895
3	203628	54.19780899642	84036
3	203786	54.21164899642	84177
3	203861	54.22548899642	84318
3	203879	54.23932899642	84459
3	204855	54.50277835206	84600
3	204957	54.533626728067	84741
3	204996	54.548272534095	84882
3	205351	54.633626728067	85023
3	205353	54.633626728067	85164
3	205382	54.638266728067	85305
3	205635	54.693726529761	85446
3	205790	54.707566529761	85587
3	205815	54.735246529761	85728
3	205834	54.749086529761	85869
3	205951	54.762926529761	86010
3	205991	54.776766529761	86151
3	206005	54.790606529761	86292
3	206157	54.804446529761	86433
3	206378	54.897466728067	86574
3	206533	54.911306728067	86715
3	206564	54.925146728067	86856
3	206583	54.938986728067	86997
3	206705	54.952826728067	87138
3	206748	54.966666728067	87279
3	206785	54.980506728067	87420
3	207640	55.183626728067	87561
3	207642	55.183626728067	87702
3	207671	55.188266728067	87843
3	207960	55.243726529761	87984
3	208078	55.257566529761	88125
3	208095	55.285246529761	88266
3	208114	55.299086529761	88407
3	208271	55.312926529761	88548
3	208311	55.326766529761	88689
3	209326	55.60277835206	88830
3	209421	55.633626728067	88971
3	209423	55.633626728067	89112
3	211280	56.15277835206	89253
3	211346	56.183626728067	89394
3	211701	56.283626728067	89535
3	211703	56.283626728067	89676
3	211732	56.288266728067	89817
3	212438	56.493584192201	89958
3	212591	56.507424192201	90099
3	212610	56.521264192201	90240
3	212629	56.535104192201	90381
3	212648	56.548944192201	90522
3	213778	56.843096785734	90663
3	213897	56.856936785734	90804
3	213961	56.870776785734	90945
3	213980	56.884616785734	91086
3	213994	56.898456785734	91227
3	215356	57.25277835206	91368
3	215398	57.283626728067	91509
3	215789	57.383626728067	91650
3	215816	57.388266728067	91791
3	215835	57.393584192201	91932
3	216368	57.533626728067	92073
3	216387	57.547466728067	92214
3	216601	57.593584192201	92355
3	216754	57.607424192201	92496
3	219285	58.35277835206	92637
3	219706	58.483626728067	92778
3	219733	58.488456785734	92919
3	219751	58.493584192201	93060
3	219933	58.529976785734	93201
3	219951	58.543816785734	93342
3	220260	58.633626728067	93483
3	220449	58.683626728067	93624
3	220468	58.697466728067	93765
3	220623	58.711306728067	93906
3	220654	58.725146728067	94047
3	221534	58.98396899642	94188
3	221553	58.99780899642	94329
3	221719	59.01164899642	94470
3	221808	59.03396899642	94611
3	221826	59.03932899642	94752
3	221845	59.04780899642	94893
3	222397	59.183626728067	95034
3	222634	59.233626728067	95175
3	222653	59.247466728067	95316
3	222777	59.261306728067	95457
3	222857	59.293584192201	95598
3	223012	59.307424192201	95739
3	223616	59.45277835206	95880
3	223803	59.53396899642	96021
3	223822	59.54780899642	96162
3	223950	59.56164899642	96303
3	224078	59.583626728067	96444
3	224089	59.58396899642	96585
3	224653	59.748272534095	96726
3	224776	59.762112534095	96867
3	224863	59.784459262162	97008
3	224882	59.798299262162	97149
3	225041	59.812139262162	97290
3	225940	60.083626728067	97431
3	226197	60.133626728067	97572
3	226677	60.283626728067	97713
3	226679	60.283626728067	97854
3	226915	60.333626728067	97995
3	226934	60.347466728067	98136
3	227077	60.383626728067	98277
3	227748	60.55277835206	98418
3	229777	61.183626728067	98559
3	229795	61.197466728067	98700
3	230018	61.233626728067	98841
3	230540	61.383626728067	98982
3	230542	61.383626728067	99123
3	230817	61.433730596859	99264
3	230848	61.447570596859	99405
3	231019	61.483626728067	99546
3	231752	61.65277835206	99687
3	233680	62.20277835206	99828
3	233846	62.283626728067	99969
3	234069	62.333626728067	100110
3	234877	62.583626728067	100251
3	236567	63.083626728067	100392
3	236792	63.133626728067	100533
3	237533	63.30277835206	100674
3	237719	63.398426728067	100815
3	237896	63.433626728067	100956
3	238542	63.633626728067	101097
3	240089	64.083626728067	101238
3	240108	64.097466728067	101379
3	240432	64.183626728067	101520
3	240633	64.233626728067	101661
3	241332	64.40277835206	101802
3	241526	64.483626728067	101943
3	241703	64.533626728067	102084
3	242066	64.633626728067	102225
3	243885	65.183626728067	102366
3	244117	65.23396899642	102507
3	244136	65.24780899642	102648
3	244260	65.26164899642	102789
3	244341	65.298426728067	102930
3	244500	65.30316899642	103071
3	244555	65.31700899642	103212
3	244597	65.333626728067	103353
3	244718	65.35852899642	103494
3	244737	65.37236899642	103635
3	244756	65.38620899642	103776
3	245355	65.50277835206	103917
3	245557	65.583626728067	104058
3	245774	65.633626728067	104199
3	245946	65.683626728067	104340
3	245964	65.697466728067	104481
3	246124	65.711306728067	104622
3	246187	65.725146728067	104763
3	246381	65.78396899642	104904
3	246536	65.81164899642	105045
3	246594	65.833626728067	105186
3	246613	65.83932899642	105327
3	246742	65.861306728067	105468
3	246803	65.875146728067	105609
3	247776	66.133626728067	105750
3	247946	66.183626728067	105891
3	248170	66.233626728067	106032
3	248686	66.393584192201	106173
3	248843	66.407424192201	106314
3	248906	66.421264192201	106455
3	248925	66.433626728067	106596
3	249609	66.60277835206	106737
3	250226	66.793096785734	106878
3	250453	66.834616785734	107019
3	250471	66.848456785734	107160
3	250587	66.862296785734	107301
3	250647	66.876136785734	107442
3	250665	66.889976785734	107583
3	250916	66.943584192201	107724
3	251036	66.957424192201	107865
3	251076	66.971264192201	108006
3	251095	66.985104192201	108147
3	251114	66.998944192201	108288
3	251276	67.012784192201	108429
3	251875	67.15277835206	108570
3	252154	67.233626728067	108711
3	252319	67.283626728067	108852
3	252524	67.333626728067	108993
3	252710	67.383626728067	109134
3	252738	67.397466728067	109275
3	253079	67.483626728067	109416
3	253098	67.497466728067	109557
3	253276	67.533626728067	109698
3	254662	67.943726529761	109839
3	254829	67.971406529761	109980
3	254848	67.985246529761	110121
3	255016	68.012926529761	110262
3	255092	68.040606529761	110403
3	255919	68.25277835206	110544
3	256185	68.333626728067	110685
3	256499	68.44780899642	110826
3	256622	68.46164899642	110967
3	256696	68.47548899642	111108
3	256726	68.483626728067	111249
3	256757	68.493726529761	111390
3	256916	68.50316899642	111531
3	256944	68.51700899642	111672
3	257006	68.549086529761	111813
3	257130	68.562926529761	111954
3	257224	68.584159063856	112095
3	257243	68.597999063856	112236
3	257394	68.625679063856	112377
3	257413	68.639519063856	112518
3	257537	68.653359063856	112659
3	258402	68.883626728067	112800
3	258620	68.943584192201	112941
3	258767	68.99780899642	113082
3	259128	69.057566529761	113223
3	259439	69.138266728067	113364
3	259458	69.143584192201	113505
3	259576	69.152106728067	113646
3	259595	69.157424192201	113787
3	259614	69.165946728067	113928
3	259633	69.179786728067	114069
3	259652	69.193626728067	114210
3	260378	69.35277835206	114351
3	260649	69.433626728067	114492
3	260819	69.493584192201	114633
3	261147	69.583626728067	114774
3	261175	69.593726529761	114915
3	261349	69.621406529761	115056
3	261368	69.635246529761	115197
3	261382	69.649086529761	115338
3	261594	69.688266728067	115479
3	263186	70.133626728067	115620
3	263214	70.143726529761	115761
3	263329	70.157566529761	115902
3	263587	70.238266798601	116043
3	263606	70.243584192201	116184
3	264405	70.452772957963	116325
3	264626	70.533626728067	116466
3	264791	70.583730923618	116607
3	265470	70.783626728067	116748
3	265489	70.792907526645	116889
3	265508	70.797466728067	117030
3	266689	71.13362964451	117171
3	266707	71.138445523671	117312
3	266841	71.166125220319	117453
3	266863	71.179965067389	117594
3	267395	71.333626728067	117735
3	267414	71.338266728067	117876
3	267433	71.342909032791	118017
3	267553	71.356749068876	118158
3	267593	71.370589105336	118299
3	267615	71.398269179384	118440
3	268333	71.55277536	118581
3	268686	71.688438261562	118722
3	268839	71.70227807915	118863
3	268885	71.716117896019	119004
3	268935	71.733626728067	119145
3	269458	71.892911330732	119286
3	269613	71.906751381879	119427
3	269653	71.92059143341	119568
3	270730	72.233638237336	119709
3	270944	72.283626728067	119850
3	270972	72.293726529761	119991
3	271151	72.321406529761	120132
3	271173	72.349086529761	120273
3	271288	72.362926529761	120414
3	271618	72.433626728067	120555
3	271620	72.433626728067	120696
3	271649	72.438266728067	120837
3	271668	72.442914436362	120978
3	271687	72.447466728067	121119
3	271808	72.456754502916	121260
3	272461	72.648142245666	121401
3	273143	72.843726529761	121542
3	273263	72.857566529761	121683
3	273298	72.871406529761	121824
3	273317	72.885246529761	121965
3	273336	72.899086529761	122106
3	274452	73.183488849846	122247
3	275076	73.383626728067	122388
3	275104	73.393726529761	122529
3	275259	73.407566529761	122670
3	275701	73.533626728067	122811
3	275703	73.533626728067	122952
3	275727	73.538266728067	123093
3	275746	73.542923153968	123234
3	277534	74.083626728067	123375
3	278545	74.383672392995	123516
3	278563	74.397512517365	123657
3	278890	74.483626728067	123798
3	279540	74.633626728067	123939
3	279542	74.633626728067	124080
3	279580	74.643605682479	124221
3	279702	74.657445814982	124362
3	279763	74.671285947921	124503
3	280527	74.938389732426	124644
3	280646	74.952229496292	124785
3	281455	75.183626728067	124926
3	281457	75.183626728067	125067
3	281486	75.188302776255	125208
3	281643	75.202142925977	125349
3	281686	75.215983076138	125490
3	282539	75.483699367157	125631
3	282697	75.516063349682	125772
3	282715	75.529903124294	125913
3	284450	76.038379230727	126054
3	284567	76.052219017915	126195
3	285194	76.248224192201	126336
3	285316	76.262064192201	126477
3	285374	76.275904192201	126618
3	285393	76.283626728067	126759
3	285809	76.383626728067	126900
3	285828	76.397466728067	127041
3	286508	76.593726529761	127182
3	286661	76.607566529761	127323
3	286675	76.621406529761	127464
3	286694	76.635246529761	127605
3	286713	76.649086529761	127746
3	287270	76.798224192201	127887
3	288616	77.133752142281	128028
3	288748	77.157566529761	128169
3	288767	77.171406529761	128310
3	288781	77.185246529761	128451
3	289413	77.333626728067	128592
3	289443	77.347466728067	128733
3	289453	77.348224192201	128874
3	290034	77.483626728067	129015
3	290785	77.683772740202	129156
3	290812	77.693726529761	129297
3	290960	77.707566529761	129438
3	290979	77.721406529761	129579
3	290998	77.735246529761	129720
3	292707	78.188330943754	129861
3	292863	78.202170795835	130002
3	292896	78.216010648355	130143
3	293586	78.448224192201	130284
3	293946	78.533698936374	130425
3	294151	78.583626728067	130566
3	295490	78.983626728067	130707
3	295521	78.997466728067	130848
3	296124	79.133626728067	130989
3	296634	79.262151980569	131130
3	296722	79.275992223947	131271
3	296741	79.289832467332	131412
3	296911	79.317512954102	131553
3	296939	79.331353197481	131694
3	297062	79.359033684207	131835
3	297102	79.372873927547	131976
3	297121	79.386714170866	132117
3	297277	79.400554414161	132258
3	297288	79.414394657427	132399
3	297339	79.428234900661	132540
3	298231	79.633919777797	132681
3	298758	79.79832137867	132822
3	298919	79.812161619415	132963
3	299008	79.826001860012	133104
3	299027	79.83362878588	133245
3	299045	79.839842100455	133386
3	299073	79.847468665045	133527
3	299203	79.862928347334	133668
3	300555	80.233626728067	133809
3	300926	80.333626728067	133950
3	300953	80.343684874489	134091
3	301079	80.357524874489	134232
3	301184	80.388266728067	134373
3	301191	80.388292900498	134514
3	301872	80.583626728067	134655
3	301891	80.597466728067	134796
3	303034	80.888564451764	134937
3	303196	80.902404451764	135078
3	303207	80.907524874489	135219
3	303266	80.916244451764	135360
3	303337	80.930084451764	135501
3	303351	80.943924451764	135642
3	304112	81.138266728067	135783
3	304131	81.147466728067	135924
3	304253	81.161306728067	136065
3	304928	81.333626728067	136206
3	305299	81.433626728067	136347
3	305326	81.443684874489	136488
3	305447	81.457524874489	136629
3	305529	81.488292900498	136770
3	307383	81.993684874489	136911
3	307553	82.007524874489	137052
3	307638	82.021364874489	137193
3	308365	82.233626728067	137334
3	308387	82.243584192201	137475
3	308406	82.247466728067	137616
3	309513	82.533626728067	137757
3	309540	82.543684874489	137898
3	309740	82.588292900498	138039
3	310699	82.833626728067	138180
3	310717	82.847466728067	138321
3	311092	82.933626728067	138462
3	311509	83.03396899642	138603
3	311528	83.04780899642	138744
3	311654	83.06164899642	138885
3	311721	83.07548899642	139026
3	311761	83.08932899642	139167
3	312034	83.138292900498	139308
3	312744	83.333626728067	139449
3	312945	83.383626728067	139590
3	312963	83.397466728067	139731
3	313848	83.633626728067	139872
3	313875	83.643684874489	140013
3	314001	83.657524874489	140154
3	314072	83.671364874489	140295
3	315671	84.13396899642	140436
3	315838	84.183626728067	140577
3	316500	84.383626728067	140718
3	316519	84.397466728067	140859
3	316718	84.433626728067	141000
3	317643	84.683626728067	141141
3	319662	85.233626728067	141282
3	319670	85.23386883114	141423
3	319697	85.238564451764	141564
3	319716	85.24770883114	141705
3	319842	85.252404451764	141846
3	319861	85.26154883114	141987
3	319911	85.266244451764	142128
3	319945	85.280084451764	142269
3	319989	85.294791023995	142410
3	320159	85.312310456098	142551
3	320772	85.483626728067	142692
3	321027	85.533626728067	142833
3	321029	85.533626728067	142974
3	321058	85.547466728067	143115
3	321959	85.79770883114	143256
3	323951	86.333626728067	143397
3	323959	86.33386883114	143538
3	323986	86.34770883114	143679
3	324205	86.383626728067	143820
3	324212	86.383652900498	143961
3	324233	86.397492900498	144102
3	325104	86.633626728067	144243
3	326184	86.933652900498	144384
3	327066	87.183626728067	144525
3	327434	87.298462591762	144666
3	327593	87.312302591762	144807
3	328043	87.433626728067	144948
3	328260	87.498287067344	145089
3	329873	87.93386883114	145230
3	329891	87.94770883114	145371
3	330052	87.97538883114	145512
3	330291	88.033626728067	145653
3	330323	88.047466728067	145794
3	330445	88.061306728067	145935
3	330464	88.075146728067	146076
3	331294	88.298272534095	146217
3	331973	88.46260899642	146358
3	332044	88.47644899642	146499
3	332063	88.48396899642	146640
3	332081	88.49780899642	146781
3	332270	88.52548899642	146922
3	332419	88.55316899642	147063
3	332510	88.571555000754	147204
3	332540	88.583626728067	147345
3	332569	88.585395000754	147486
3	332604	88.597466728067	147627
3	332757	88.611306728067	147768
3	332771	88.625146728067	147909
3	332790	88.638986728067	148050
3	332916	88.652826728067	148191
3	334371	89.083626728067	148332
3	334641	89.133626728067	148473
3	334801	89.152803724658	148614
3	334836	89.166643724658	148755
3	334885	89.180483724658	148896
3	334907	89.194323724658	149037
3	335066	89.200062591762	149178
3	335634	89.383626728067	149319
3	336308	89.58396899642	149460
3	336549	89.633626728067	149601
3	336577	89.643584192201	149742
3	336950	89.703002066244	149883
3	338146	90.033626728067	150024
3	338165	90.038456785734	150165
3	338184	90.047466728067	150306
3	338313	90.061306728067	150447
3	338359	90.075146728067	150588
3	338390	90.088986728067	150729
3	338569	90.102826728067	150870
3	338612	90.116666728067	151011
3	338643	90.130506728067	151152
3	338858	90.183626728067	151293
3	339224	90.252803724658	151434
3	339235	90.253002066244	151575
3	339258	90.266842066244	151716
3	340085	90.483686052203	151857
3	340452	90.583626728067	151998
3	340815	90.68396899642	152139
3	340834	90.69780899642	152280
3	342578	91.133626728067	152421
3	343137	91.283626728067	152562
3	343398	91.338169557812	152703
3	343417	91.348426728067	152844
3	343981	91.498462591762	152985
3	344346	91.583686052203	153126
3	344591	91.63396899642	153267
3	344610	91.64780899642	153408
3	344731	91.66164899642	153549
3	344825	91.67548899642	153690
3	346142	92.048462591762	153831
3	346264	92.062302591762	153972
3	346547	92.133686052203	154113
3	346732	92.18396899642	154254
3	346751	92.19780899642	154395
3	346996	92.233626728067	154536
3	347521	92.383626728067	154677
3	347771	92.433529557812	154818
3	347801	92.448426728067	154959
3	348338	92.598462591762	155100
3	348493	92.612302591762	155241
3	349300	92.83396899642	155382
3	349319	92.84780899642	155523
3	350863	93.233626728067	155664
3	351206	93.333626728067	155805
3	351418	93.38396899642	155946
3	352016	93.533529557812	156087
3	352046	93.548426728067	156228
3	353982	94.098426728067	156369
3	354378	94.19780899642	156510
3	354944	94.333626728067	156651
3	355067	94.352296785734	156792
3	355310	94.433626728067	156933
3	355716	94.53396899642	157074
3	355730	94.54780899642	157215
3	355854	94.56164899642	157356
3	355939	94.58932899642	157497
3	356156	94.633481326346	157638
3	356175	94.638202066244	157779
3	358095	95.183481326346	157920
3	358849	95.383626728067	158061
3	358868	95.397466728067	158202
3	359098	95.433626728067	158343
3	360006	95.738202066244	158484
3	360690	95.933626728067	158625
3	360722	95.94876899642	158766
3	360844	95.96260899642	158907
3	361250	96.09780899642	159048
3	361902	96.283481326346	159189
3	362721	96.533626728067	159330
3	362869	96.597466728067	159471
3	363228	96.68396899642	159612
3	363242	96.69780899642	159753
3	363396	96.71164899642	159894
3	363481	96.72548899642	160035
3	363500	96.73932899642	160176
3	363617	96.75316899642	160317
3	364533	97.03396899642	160458
3	365233	97.24780899642	160599
3	365355	97.26164899642	160740
3	365393	97.27548899642	160881
3	365617	97.333626728067	161022
3	365636	97.347466728067	161163
3	365807	97.383481326346	161304
3	366732	97.633626728067	161445
3	367286	97.78396899642	161586
3	367915	97.938392123911	161727
3	368039	97.952232123911	161868
3	368106	97.979912123911	162009
3	368125	97.98396899642	162150
3	368147	97.99780899642	162291
3	368302	98.01164899642	162432
3	368552	98.083626728067	162573
3	368580	98.097466728067	162714
3	368842	98.13396899642	162855
3	368865	98.14780899642	162996
3	369060	98.183626728067	163137
3	369079	98.188266728067	163278
3	369098	98.197466728067	163419
3	369253	98.211306728067	163560
3	370046	98.433626728067	163701
3	370254	98.483481326346	163842
3	372697	99.183626728067	163983
3	372716	99.197466728067	164124
3	373038	99.283626728067	164265
3	373068	99.298426728067	164406
3	373830	99.533626728067	164547
3	374030	99.598281326346	164688
3	375078	99.852296785734	164829
3	375113	99.866136785734	164970
3	375147	99.879976785734	165111
3	377947	100.688392123911	165252
3	378100	100.702232123911	165393
3	378131	100.716072123911	165534
3	380720	101.44780899642	165675
3	382207	101.83396899642	165816
3	382221	101.84780899642	165957
3	382347	101.86164899642	166098
3	383418	102.19876899642	166239
3	383577	102.21260899642	166380
3	386422	103.04876899642	166521
3	389804	103.988392123911	166662
3	395314	105.48396899642	166803

