version 2
run C-0-20191028-00:29:07-22638
attr configname C
attr datetime 20191028-00:29:07
attr experiment C
attr inifile GwSimV1.ini
attr iterationvars ""
attr iterationvarsf ""
attr measurement ""
attr network NetworkTormV2
attr processid 22638
attr repetition 0
attr replication #0
attr resultdir results
attr runnumber 0
attr seedset 0
param **.mobility.traceFile "\"AllPaths/sPaths/C.movements\""
param **.numNodes 5
param **.application.dataGenerationInterval 1s
param **.application.dataSizeInBytes 10
param **.application.ttl 999999s
param **application.nodesThatGen false
param **application.nodesGenMsg "\"\""
param **application.startMultipleMsg false
param **application.numMultipleMsg 100
param **application.hopsListSize 50
param **.application.endGeneratingMsg 99s
param **.routingLayer "\"RoutingLqeGw\""
param **.routing.maximumCacheSize 5000byte
param **.routing.maximumHopCount 25
param **.routing.useTTL false
param **.routing.waitBFsend 0.1
param **.routing.max_age 999999s
param **.routing.gateway_list "\"\""
param **.routing.actual_gateway "\"\""
param **.routing.gwCheckPeriod 5s
param **.neighboring.resetGPeriod 999s
param **.wirelessIfc.wirelessRange 40m
param **.numNodes 2
param **.application.usedRNG 1
param **.application.dataGenerationInterval 1s
param **.application.dataSizeInBytes 10
param **.application.ttl 999999s
param **application.destinationAddr "\"Wf:00:00:00:00:02\""
param **application.destinationBTAddr "\"Bt:00:00:00:00:02\""
param **application.nodesThatGen true
param **application.nodesGenMsg "\"0\""
param **application.startMultipleMsg true
param **application.numMultipleMsg 100
param **application.hopsListSize 50
param **.application.endGeneratingMsg 999999s
param **.routingLayer "\"RoutingLqeGw\""
param **.routing.maximumCacheSize 5000byte
param **.routing.maximumHopCount 25
param **.routing.useTTL false
param **.routing.waitBFsend 0.1
param **.routing.max_age 999999s
param **.routing.gateway_list "\"\""
param **.routing.actual_gateway "\"\""
param **.routing.gwCheckPeriod 5s
param **.neighboring.antiEntropyInterval 500ms
param **.neighboring.maximumRandomBackoffDuration 1s
param **.neighboring.delayPerDataMsg 0.1
param **neighboring.usedRNG 2
param **.neighboring.GWAddr "\"Wf:00:00:00:00:02\""
param **.neighboring.sendWifiFirst true
param **.neighboring.maxLengthGraph 20
param **.neighboring.max_age 999999s
param **.neighboring.max_absent_time 1s
param **.wirelessIfc.wirelessRange 40m
param **.wirelessIfc.neighbourScanInterval 50ms
param **.wirelessIfc.bandwidthBitRate 100000bps
param **.wirelessIfc.wirelessHeaderSize 32byte
param **.wirelessIfc.minSSI -90
param **.wirelessIfc.limitQueueTime 400ms
param **.wirelessIfc.my_limit_rate 0bps
param **.bluetoothIfc.wirelessRange 40m
param **.bluetoothIfc.neighbourScanInterval 100ms
param **.bluetoothIfc.bandwidthBitRate 100000bps
param **.bluetoothIfc.wirelessHeaderSize 16byte
param **.bluetoothIfc.minSSI -90
param **.mobilityType "\"BonnMotionMobility\""
param **.mobility.traceFile "\"paths/Moves2.movements\""
param **.mobility.is3D false
param **.mobility.nodeId -1

vector 0 NetworkTormV2 neighbourhoodSize:vector ETV
attr source neighbourhoodSize
vector 1 NetworkTormV2 deliveryRatio:vector ETV
attr source sum(totalDataBytesReceived)/sum(totalDataBytesReceivableByAllNodes)
vector 2 NetworkTormV2 dataBytesReceivedSum:vector ETV
attr source sum(dataBytesReceived)
vector 3 NetworkTormV2 totalBytesReceivedSum:vector ETV
attr source sum(totalBytesReceived)
0	16	0.05	4
0	17	0.05	4
0	18	0.05	4
0	19	0.05	4
0	20	0.05	4
0	62	0.1	4
0	64	0.1	4
0	66	0.1	4
0	68	0.1	4
0	70	0.1	4
0	71	0.1	4
0	72	0.1	4
0	73	0.1	4
0	74	0.1	4
0	75	0.1	4
0	131	0.15	4
0	132	0.15	4
0	133	0.15	4
0	134	0.15	4
0	135	0.15	4
0	176	0.2	4
0	177	0.2	4
0	178	0.2	4
0	179	0.2	4
0	180	0.2	4
0	181	0.2	4
0	182	0.2	4
0	183	0.2	4
0	184	0.2	4
0	185	0.2	4
0	236	0.25	4
0	237	0.25	4
0	238	0.25	4
0	239	0.25	4
0	240	0.25	4
0	281	0.3	4
0	282	0.3	4
0	283	0.3	4
0	284	0.3	4
0	285	0.3	4
0	286	0.3	4
0	287	0.3	4
0	288	0.3	4
0	289	0.3	4
0	290	0.3	4
0	341	0.35	4
0	342	0.35	4
0	343	0.35	4
0	344	0.35	4
0	345	0.35	4
0	386	0.4	4
0	387	0.4	4
0	388	0.4	4
0	389	0.4	4
0	390	0.4	4
0	391	0.4	4
0	392	0.4	4
0	393	0.4	4
0	394	0.4	4
0	395	0.4	4
0	446	0.45	4
0	447	0.45	4
0	448	0.45	4
0	449	0.45	4
0	450	0.45	4
0	491	0.5	4
0	492	0.5	4
0	493	0.5	4
0	494	0.5	4
0	495	0.5	4
0	496	0.5	4
0	497	0.5	4
0	498	0.5	4
0	499	0.5	4
0	500	0.5	4
0	551	0.55	4
0	552	0.55	4
0	553	0.55	4
0	554	0.55	4
0	555	0.55	4
0	596	0.6	4
0	597	0.6	4
0	598	0.6	4
0	599	0.6	4
0	600	0.6	4
0	601	0.6	4
0	602	0.6	4
0	603	0.6	4
0	604	0.6	4
0	605	0.6	4
0	656	0.65	4
0	657	0.65	4
0	658	0.65	4
0	659	0.65	4
0	660	0.65	4
0	701	0.7	4
0	702	0.7	4
0	703	0.7	4
0	704	0.7	4
0	705	0.7	4
0	706	0.7	4
0	707	0.7	4
0	708	0.7	4
0	709	0.7	4
0	710	0.7	4
0	761	0.75	4
0	762	0.75	4
0	763	0.75	4
0	764	0.75	4
0	765	0.75	4
0	806	0.8	4
0	807	0.8	4
0	808	0.8	4
0	809	0.8	4
0	810	0.8	4
0	811	0.8	4
0	812	0.8	4
0	813	0.8	4
0	814	0.8	4
0	815	0.8	4
0	866	0.85	4
0	867	0.85	4
0	868	0.85	4
0	869	0.85	4
0	870	0.85	4
0	911	0.9	4
0	912	0.9	4
0	913	0.9	4
0	914	0.9	4
0	915	0.9	4
0	916	0.9	4
0	917	0.9	4
0	918	0.9	4
0	919	0.9	4
0	920	0.9	4
0	971	0.95	4
0	972	0.95	4
0	973	0.95	4
0	974	0.95	4
0	975	0.95	4
0	1016	1	4
0	1017	1	4
0	1018	1	4
0	1019	1	4
0	1020	1	4
0	1021	1	4
0	1022	1	4
0	1023	1	4
0	1024	1	4
0	1025	1	4
0	1076	1.05	4
0	1077	1.05	4
0	1078	1.05	4
0	1079	1.05	4
0	1080	1.05	4
0	1126	1.1	4
0	1127	1.1	4
0	1128	1.1	4
0	1129	1.1	4
0	1130	1.1	4
0	1131	1.1	4
0	1132	1.1	4
0	1133	1.1	4
0	1134	1.1	4
0	1135	1.1	4
0	1402	1.15	4
0	1403	1.15	4
0	1404	1.15	4
0	1405	1.15	4
0	1406	1.15	4
0	1678	1.2	4
0	1679	1.2	4
0	1680	1.2	4
0	1681	1.2	4
0	1682	1.2	4
0	1683	1.2	4
0	1684	1.2	4
0	1685	1.2	4
0	1686	1.2	4
0	1687	1.2	4
0	1738	1.25	4
0	1739	1.25	4
0	1740	1.25	4
0	1741	1.25	4
0	1742	1.25	4
0	1783	1.3	4
0	1784	1.3	4
0	1785	1.3	4
0	1786	1.3	4
0	1787	1.3	4
0	1788	1.3	4
0	1789	1.3	4
0	1790	1.3	4
0	1791	1.3	4
0	1792	1.3	4
0	1843	1.35	4
0	1844	1.35	4
0	1845	1.35	4
0	1846	1.35	4
0	1847	1.35	4
0	1888	1.4	4
0	1889	1.4	4
0	1890	1.4	4
0	1891	1.4	4
0	1892	1.4	4
0	1893	1.4	4
0	1894	1.4	4
0	1895	1.4	4
0	1896	1.4	4
0	1897	1.4	4
0	1948	1.45	4
0	1949	1.45	4
0	1950	1.45	4
0	1951	1.45	4
0	1952	1.45	4
0	1993	1.5	4
0	1994	1.5	4
0	1995	1.5	4
0	1996	1.5	4
0	1997	1.5	4
0	1998	1.5	4
0	1999	1.5	4
0	2000	1.5	4
0	2001	1.5	4
0	2002	1.5	4
0	2053	1.55	4
0	2054	1.55	4
0	2055	1.55	4
0	2056	1.55	4
0	2057	1.55	4
0	2098	1.6	4
0	2099	1.6	4
0	2100	1.6	4
0	2101	1.6	4
0	2102	1.6	4
0	2103	1.6	4
0	2104	1.6	4
0	2105	1.6	4
0	2106	1.6	4
0	2107	1.6	4
0	2158	1.65	4
0	2159	1.65	4
0	2160	1.65	4
0	2161	1.65	4
0	2162	1.65	4
0	2430	1.7	4
0	2431	1.7	4
0	2432	1.7	4
0	2433	1.7	4
0	2434	1.7	4
0	2435	1.7	4
0	2436	1.7	4
0	2437	1.7	4
0	2438	1.7	4
0	2439	1.7	4
0	2694	1.75	4
0	2695	1.75	4
0	2696	1.75	4
0	2697	1.75	4
0	2698	1.75	4
0	2739	1.8	4
0	2740	1.8	4
0	2741	1.8	4
0	2742	1.8	4
0	2743	1.8	4
0	2744	1.8	4
0	2745	1.8	4
0	2746	1.8	4
0	2747	1.8	4
0	2748	1.8	4
0	2822	1.85	4
0	2823	1.85	4
0	2824	1.85	4
0	2825	1.85	4
0	2826	1.85	4
0	2867	1.9	4
0	2868	1.9	4
0	2869	1.9	4
0	2870	1.9	4
0	2871	1.9	4
0	2872	1.9	4
0	2873	1.9	4
0	2874	1.9	4
0	2875	1.9	4
0	2876	1.9	4
0	2927	1.95	4
0	2928	1.95	4
0	2929	1.95	4
0	2930	1.95	4
0	2931	1.95	4
0	2972	2	4
0	2973	2	4
0	2974	2	4
0	2975	2	4
0	2976	2	4
0	2977	2	4
0	2978	2	4
0	2979	2	4
0	2980	2	4
0	2981	2	4
0	3032	2.05	4
0	3033	2.05	4
0	3034	2.05	4
0	3035	2.05	4
0	3036	2.05	4
0	3082	2.1	4
0	3083	2.1	4
0	3084	2.1	4
0	3085	2.1	4
0	3086	2.1	4
0	3087	2.1	4
0	3088	2.1	4
0	3089	2.1	4
0	3090	2.1	4
0	3091	2.1	4
0	3147	2.15	4
0	3148	2.15	4
0	3149	2.15	4
0	3150	2.15	4
0	3151	2.15	4
0	3192	2.2	4
0	3193	2.2	4
0	3194	2.2	4
0	3195	2.2	4
0	3196	2.2	4
0	3197	2.2	4
0	3198	2.2	4
0	3199	2.2	4
0	3200	2.2	4
0	3201	2.2	4
0	3461	2.25	4
0	3462	2.25	4
0	3463	2.25	4
0	3464	2.25	4
0	3465	2.25	4
0	3680	2.3	4
0	3681	2.3	4
0	3682	2.3	4
0	3683	2.3	4
0	3684	2.3	4
0	3685	2.3	4
0	3686	2.3	4
0	3687	2.3	4
0	3688	2.3	4
0	3689	2.3	4
0	3740	2.35	4
0	3741	2.35	4
0	3742	2.35	4
0	3743	2.35	4
0	3744	2.35	4
0	3785	2.4	4
0	3786	2.4	4
0	3787	2.4	4
0	3788	2.4	4
0	3789	2.4	4
0	3790	2.4	4
0	3791	2.4	4
0	3792	2.4	4
0	3793	2.4	4
0	3794	2.4	4
0	3845	2.45	4
0	3846	2.45	4
0	3847	2.45	4
0	3848	2.45	4
0	3849	2.45	4
0	3890	2.5	4
0	3891	2.5	4
0	3892	2.5	4
0	3893	2.5	4
0	3894	2.5	4
0	3895	2.5	4
0	3896	2.5	4
0	3897	2.5	4
0	3898	2.5	4
0	3899	2.5	4
0	3950	2.55	4
0	3951	2.55	4
0	3952	2.55	4
0	3953	2.55	4
0	3954	2.55	4
0	3995	2.6	4
0	3996	2.6	4
0	3997	2.6	4
0	3998	2.6	4
0	3999	2.6	4
0	4000	2.6	4
0	4001	2.6	4
0	4002	2.6	4
0	4003	2.6	4
0	4004	2.6	4
0	4055	2.65	4
0	4056	2.65	4
0	4057	2.65	4
0	4058	2.65	4
0	4059	2.65	4
0	4100	2.7	4
0	4101	2.7	4
0	4102	2.7	4
0	4103	2.7	4
0	4104	2.7	4
0	4105	2.7	4
0	4106	2.7	4
0	4107	2.7	4
0	4108	2.7	4
0	4109	2.7	4
0	4160	2.75	4
0	4161	2.75	4
0	4162	2.75	4
0	4163	2.75	4
0	4164	2.75	4
0	4405	2.8	4
0	4406	2.8	4
0	4407	2.8	4
0	4408	2.8	4
0	4409	2.8	4
0	4410	2.8	4
0	4411	2.8	4
0	4412	2.8	4
0	4413	2.8	4
0	4414	2.8	4
0	4591	2.85	4
0	4592	2.85	4
0	4593	2.85	4
0	4594	2.85	4
0	4595	2.85	4
0	4636	2.9	4
0	4637	2.9	4
0	4638	2.9	4
0	4639	2.9	4
0	4640	2.9	4
0	4641	2.9	4
0	4642	2.9	4
0	4643	2.9	4
0	4644	2.9	4
0	4645	2.9	4
0	4719	2.95	4
0	4720	2.95	4
0	4721	2.95	4
0	4722	2.95	4
0	4723	2.95	4
0	4764	3	4
0	4765	3	4
0	4766	3	4
0	4767	3	4
0	4768	3	4
0	4769	3	4
0	4770	3	4
0	4771	3	4
0	4772	3	4
0	4773	3	4
0	4824	3.05	4
0	4825	3.05	4
0	4826	3.05	4
0	4827	3.05	4
0	4828	3.05	4
0	4874	3.1	4
0	4875	3.1	4
0	4876	3.1	4
0	4877	3.1	4
0	4878	3.1	4
0	4879	3.1	4
0	4880	3.1	4
0	4881	3.1	4
0	4882	3.1	4
0	4883	3.1	4
0	4939	3.15	4
0	4940	3.15	4
0	4941	3.15	4
0	4942	3.15	4
0	4943	3.15	4
0	4984	3.2	4
0	4985	3.2	4
0	4986	3.2	4
0	4987	3.2	4
0	4988	3.2	4
0	4989	3.2	4
0	4990	3.2	4
0	4991	3.2	4
0	4992	3.2	4
0	4993	3.2	4
0	5044	3.25	4
0	5045	3.25	4
0	5046	3.25	4
0	5047	3.25	4
0	5048	3.25	4
0	5089	3.3	4
0	5090	3.3	4
0	5091	3.3	4
0	5092	3.3	4
0	5093	3.3	4
0	5094	3.3	4
0	5095	3.3	4
0	5096	3.3	4
0	5097	3.3	4
0	5098	3.3	4
0	5378	3.35	4
0	5379	3.35	4
0	5380	3.35	4
0	5381	3.35	4
0	5382	3.35	4
0	5510	3.4	4
0	5511	3.4	4
0	5512	3.4	4
0	5513	3.4	4
0	5514	3.4	4
0	5515	3.4	4
0	5516	3.4	4
0	5517	3.4	4
0	5518	3.4	4
0	5519	3.4	4
0	5587	3.45	4
0	5588	3.45	4
0	5589	3.45	4
0	5590	3.45	4
0	5591	3.45	4
0	5678	3.5	4
0	5679	3.5	4
0	5680	3.5	4
0	5681	3.5	4
0	5682	3.5	4
0	5683	3.5	4
0	5684	3.5	4
0	5685	3.5	4
0	5686	3.5	4
0	5687	3.5	4
0	5738	3.55	4
0	5739	3.55	4
0	5740	3.55	4
0	5741	3.55	4
0	5742	3.55	4
0	5806	3.6	4
0	5807	3.6	4
0	5808	3.6	4
0	5809	3.6	4
0	5810	3.6	4
0	5811	3.6	4
0	5812	3.6	4
0	5813	3.6	4
0	5814	3.6	4
0	5815	3.6	4
0	5866	3.65	4
0	5867	3.65	4
0	5868	3.65	4
0	5869	3.65	4
0	5870	3.65	4
0	5911	3.7	4
0	5912	3.7	4
0	5913	3.7	4
0	5914	3.7	4
0	5915	3.7	4
0	5916	3.7	4
0	5917	3.7	4
0	5918	3.7	4
0	5919	3.7	4
0	5920	3.7	4
0	5971	3.75	4
0	5972	3.75	4
0	5973	3.75	4
0	5974	3.75	4
0	5975	3.75	4
0	6016	3.8	4
0	6017	3.8	4
0	6018	3.8	4
0	6019	3.8	4
0	6020	3.8	4
0	6021	3.8	4
0	6022	3.8	4
0	6023	3.8	4
0	6024	3.8	4
0	6025	3.8	4
0	6099	3.85	4
0	6100	3.85	4
0	6101	3.85	4
0	6102	3.85	4
0	6103	3.85	4
0	6373	3.9	4
0	6374	3.9	4
0	6375	3.9	4
0	6376	3.9	4
0	6377	3.9	4
0	6378	3.9	4
0	6379	3.9	4
0	6380	3.9	4
0	6381	3.9	4
0	6382	3.9	4
0	6526	3.95	4
0	6527	3.95	4
0	6528	3.95	4
0	6529	3.95	4
0	6530	3.95	4
0	6611	4	4
0	6612	4	4
0	6613	4	4
0	6614	4	4
0	6615	4	4
0	6616	4	4
0	6617	4	4
0	6618	4	4
0	6619	4	4
0	6620	4	4
0	6711	4.05	4
0	6712	4.05	4
0	6713	4.05	4
0	6714	4.05	4
0	6715	4.05	4
0	6761	4.1	4
0	6762	4.1	4
0	6763	4.1	4
0	6764	4.1	4
0	6765	4.1	4
0	6766	4.1	4
0	6767	4.1	4
0	6768	4.1	4
0	6769	4.1	4
0	6770	4.1	4
0	6831	4.15	4
0	6832	4.15	4
0	6833	4.15	4
0	6834	4.15	4
0	6835	4.15	4
0	6876	4.2	4
0	6877	4.2	4
0	6878	4.2	4
0	6879	4.2	4
0	6880	4.2	4
0	6881	4.2	4
0	6882	4.2	4
0	6883	4.2	4
0	6884	4.2	4
0	6885	4.2	4
0	6936	4.25	4
0	6937	4.25	4
0	6938	4.25	4
0	6939	4.25	4
0	6940	4.25	4
0	6981	4.3	4
0	6982	4.3	4
0	6983	4.3	4
0	6984	4.3	4
0	6985	4.3	4
0	6986	4.3	4
0	6987	4.3	4
0	6988	4.3	4
0	6989	4.3	4
0	6990	4.3	4
0	7041	4.35	4
0	7042	4.35	4
0	7043	4.35	4
0	7044	4.35	4
0	7045	4.35	4
0	7091	4.4	4
0	7092	4.4	4
0	7093	4.4	4
0	7094	4.4	4
0	7095	4.4	4
0	7096	4.4	4
0	7097	4.4	4
0	7098	4.4	4
0	7099	4.4	4
0	7100	4.4	4
0	7353	4.45	4
0	7354	4.45	4
0	7355	4.45	4
0	7356	4.45	4
0	7357	4.45	4
0	7482	4.5	4
0	7483	4.5	4
0	7484	4.5	4
0	7485	4.5	4
0	7486	4.5	4
0	7487	4.5	4
0	7488	4.5	4
0	7489	4.5	4
0	7490	4.5	4
0	7491	4.5	4
0	7542	4.55	4
0	7543	4.55	4
0	7544	4.55	4
0	7545	4.55	4
0	7546	4.55	4
0	7610	4.6	4
0	7611	4.6	4
0	7612	4.6	4
0	7613	4.6	4
0	7614	4.6	4
0	7615	4.6	4
0	7616	4.6	4
0	7617	4.6	4
0	7618	4.6	4
0	7619	4.6	4
0	7670	4.65	4
0	7671	4.65	4
0	7672	4.65	4
0	7673	4.65	4
0	7674	4.65	4
0	7715	4.7	4
0	7716	4.7	4
0	7717	4.7	4
0	7718	4.7	4
0	7719	4.7	4
0	7720	4.7	4
0	7721	4.7	4
0	7722	4.7	4
0	7723	4.7	4
0	7724	4.7	4
0	7775	4.75	4
0	7776	4.75	4
0	7777	4.75	4
0	7778	4.75	4
0	7779	4.75	4
0	7820	4.8	4
0	7821	4.8	4
0	7822	4.8	4
0	7823	4.8	4
0	7824	4.8	4
0	7825	4.8	4
0	7826	4.8	4
0	7827	4.8	4
0	7828	4.8	4
0	7829	4.8	4
0	7880	4.85	4
0	7881	4.85	4
0	7882	4.85	4
0	7883	4.85	4
0	7884	4.85	4
0	7925	4.9	4
0	7926	4.9	4
0	7927	4.9	4
0	7928	4.9	4
0	7929	4.9	4
0	7930	4.9	4
0	7931	4.9	4
0	7932	4.9	4
0	7933	4.9	4
0	7934	4.9	4
0	7985	4.95	4
0	7986	4.95	4
0	7987	4.95	4
0	7988	4.95	4
0	7989	4.95	4
0	8245	5	4
0	8246	5	4
0	8247	5	4
0	8248	5	4
0	8249	5	4
0	8250	5	4
0	8251	5	4
0	8252	5	4
0	8253	5	4
0	8254	5	4
0	8371	5.05	4
0	8372	5.05	4
0	8373	5.05	4
0	8374	5.05	4
0	8375	5.05	4
0	8421	5.1	4
0	8422	5.1	4
0	8423	5.1	4
0	8424	5.1	4
0	8425	5.1	4
0	8426	5.1	4
0	8427	5.1	4
0	8428	5.1	4
0	8429	5.1	4
0	8430	5.1	4
0	8532	5.15	4
0	8533	5.15	4
0	8534	5.15	4
0	8535	5.15	4
0	8536	5.15	4
0	8577	5.2	4
0	8578	5.2	4
0	8579	5.2	4
0	8580	5.2	4
0	8581	5.2	4
0	8582	5.2	4
0	8583	5.2	4
0	8584	5.2	4
0	8585	5.2	4
0	8586	5.2	4
0	8637	5.25	4
0	8638	5.25	4
0	8639	5.25	4
0	8640	5.25	4
0	8641	5.25	4
0	8682	5.3	4
0	8683	5.3	4
0	8684	5.3	4
0	8685	5.3	4
0	8686	5.3	4
0	8687	5.3	4
0	8688	5.3	4
0	8689	5.3	4
0	8690	5.3	4
0	8691	5.3	4
0	8742	5.35	4
0	8743	5.35	4
0	8744	5.35	4
0	8745	5.35	4
0	8746	5.35	4
0	8787	5.4	4
0	8788	5.4	4
0	8789	5.4	4
0	8790	5.4	4
0	8791	5.4	4
0	8792	5.4	4
0	8793	5.4	4
0	8794	5.4	4
0	8795	5.4	4
0	8796	5.4	4
0	8847	5.45	4
0	8848	5.45	4
0	8849	5.45	4
0	8850	5.45	4
0	8851	5.45	4
0	8897	5.5	4
0	8898	5.5	4
0	8899	5.5	4
0	8900	5.5	4
0	8901	5.5	4
0	8902	5.5	4
0	8903	5.5	4
0	8904	5.5	4
0	8905	5.5	4
0	8906	5.5	4
0	9129	5.55	4
0	9130	5.55	4
0	9131	5.55	4
0	9132	5.55	4
0	9133	5.55	4
0	9270	5.6	4
0	9271	5.6	4
0	9272	5.6	4
0	9273	5.6	4
0	9274	5.6	4
0	9275	5.6	4
0	9276	5.6	4
0	9277	5.6	4
0	9278	5.6	4
0	9279	5.6	4
0	9353	5.65	4
0	9354	5.65	4
0	9355	5.65	4
0	9356	5.65	4
0	9357	5.65	4
0	9421	5.7	4
0	9422	5.7	4
0	9423	5.7	4
0	9424	5.7	4
0	9425	5.7	4
0	9426	5.7	4
0	9427	5.7	4
0	9428	5.7	4
0	9429	5.7	4
0	9430	5.7	4
0	9498	5.75	4
0	9499	5.75	4
0	9500	5.75	4
0	9501	5.75	4
0	9502	5.75	4
0	9560	5.8	4
0	9561	5.8	4
0	9562	5.8	4
0	9563	5.8	4
0	9564	5.8	4
0	9565	5.8	4
0	9566	5.8	4
0	9567	5.8	4
0	9568	5.8	4
0	9569	5.8	4
0	9620	5.85	4
0	9621	5.85	4
0	9622	5.85	4
0	9623	5.85	4
0	9624	5.85	4
0	9665	5.9	4
0	9666	5.9	4
0	9667	5.9	4
0	9668	5.9	4
0	9669	5.9	4
0	9670	5.9	4
0	9671	5.9	4
0	9672	5.9	4
0	9673	5.9	4
0	9674	5.9	4
0	9725	5.95	4
0	9726	5.95	4
0	9727	5.95	4
0	9728	5.95	4
0	9729	5.95	4
0	9775	6	4
0	9776	6	4
0	9777	6	4
0	9778	6	4
0	9779	6	4
0	9780	6	4
0	9781	6	4
0	9782	6	4
0	9783	6	4
0	9784	6	4
0	9835	6.05	4
0	9836	6.05	4
0	9837	6.05	4
0	9838	6.05	4
0	9839	6.05	4
0	10056	6.1	4
0	10057	6.1	4
0	10058	6.1	4
0	10059	6.1	4
0	10060	6.1	4
0	10061	6.1	4
0	10062	6.1	4
0	10063	6.1	4
0	10064	6.1	4
0	10065	6.1	4
0	10308	6.15	4
0	10309	6.15	4
0	10310	6.15	4
0	10311	6.15	4
0	10312	6.15	4
0	10476	6.2	4
0	10477	6.2	4
0	10478	6.2	4
0	10479	6.2	4
0	10480	6.2	4
0	10481	6.2	4
0	10482	6.2	4
0	10483	6.2	4
0	10484	6.2	4
0	10485	6.2	4
0	10596	6.25	4
0	10597	6.25	4
0	10598	6.25	4
0	10599	6.25	4
0	10600	6.25	4
0	10658	6.3	4
0	10659	6.3	4
0	10660	6.3	4
0	10661	6.3	4
0	10662	6.3	4
0	10663	6.3	4
0	10664	6.3	4
0	10665	6.3	4
0	10666	6.3	4
0	10667	6.3	4
0	10718	6.35	4
0	10719	6.35	4
0	10720	6.35	4
0	10721	6.35	4
0	10722	6.35	4
0	10763	6.4	4
0	10764	6.4	4
0	10765	6.4	4
0	10766	6.4	4
0	10767	6.4	4
0	10768	6.4	4
0	10769	6.4	4
0	10770	6.4	4
0	10771	6.4	4
0	10772	6.4	4
0	10823	6.45	4
0	10824	6.45	4
0	10825	6.45	4
0	10826	6.45	4
0	10827	6.45	4
0	10873	6.5	4
0	10874	6.5	4
0	10875	6.5	4
0	10876	6.5	4
0	10877	6.5	4
0	10878	6.5	4
0	10879	6.5	4
0	10880	6.5	4
0	10881	6.5	4
0	10882	6.5	4
0	10933	6.55	4
0	10934	6.55	4
0	10935	6.55	4
0	10936	6.55	4
0	10937	6.55	4
0	10978	6.6	4
0	10979	6.6	4
0	10980	6.6	4
0	10981	6.6	4
0	10982	6.6	4
0	10983	6.6	4
0	10984	6.6	4
0	10985	6.6	4
0	10986	6.6	4
0	10987	6.6	4
0	11219	6.65	4
0	11220	6.65	4
0	11221	6.65	4
0	11222	6.65	4
0	11223	6.65	4
0	11393	6.7	4
0	11394	6.7	4
0	11395	6.7	4
0	11396	6.7	4
0	11397	6.7	4
0	11398	6.7	4
0	11399	6.7	4
0	11400	6.7	4
0	11401	6.7	4
0	11402	6.7	4
0	11499	6.75	4
0	11500	6.75	4
0	11501	6.75	4
0	11502	6.75	4
0	11503	6.75	4
0	11544	6.8	4
0	11545	6.8	4
0	11546	6.8	4
0	11547	6.8	4
0	11548	6.8	4
0	11549	6.8	4
0	11550	6.8	4
0	11551	6.8	4
0	11552	6.8	4
0	11553	6.8	4
0	11666	6.85	4
0	11667	6.85	4
0	11668	6.85	4
0	11669	6.85	4
0	11670	6.85	4
0	11787	6.9	4
0	11788	6.9	4
0	11789	6.9	4
0	11790	6.9	4
0	11791	6.9	4
0	11792	6.9	4
0	11793	6.9	4
0	11794	6.9	4
0	11795	6.9	4
0	11796	6.9	4
0	11910	6.95	4
0	11911	6.95	4
0	11912	6.95	4
0	11913	6.95	4
0	11914	6.95	4
0	11957	7	4
0	11958	7	4
0	11959	7	4
0	11960	7	4
0	11961	7	4
0	11962	7	4
0	11963	7	4
0	11964	7	4
0	11965	7	4
0	11966	7	4
0	12017	7.05	4
0	12018	7.05	4
0	12019	7.05	4
0	12020	7.05	4
0	12021	7.05	4
0	12067	7.1	4
0	12068	7.1	4
0	12069	7.1	4
0	12070	7.1	4
0	12071	7.1	4
0	12072	7.1	4
0	12073	7.1	4
0	12074	7.1	4
0	12075	7.1	4
0	12076	7.1	4
0	12133	7.15	4
0	12134	7.15	4
0	12135	7.15	4
0	12136	7.15	4
0	12137	7.15	4
0	12361	7.2	4
0	12362	7.2	4
0	12363	7.2	4
0	12364	7.2	4
0	12365	7.2	4
0	12366	7.2	4
0	12367	7.2	4
0	12368	7.2	4
0	12369	7.2	4
0	12370	7.2	4
0	12527	7.25	4
0	12528	7.25	4
0	12529	7.25	4
0	12530	7.25	4
0	12531	7.25	4
0	12618	7.3	4
0	12619	7.3	4
0	12620	7.3	4
0	12621	7.3	4
0	12622	7.3	4
0	12623	7.3	4
0	12624	7.3	4
0	12625	7.3	4
0	12626	7.3	4
0	12627	7.3	4
0	12678	7.35	4
0	12679	7.35	4
0	12680	7.35	4
0	12681	7.35	4
0	12682	7.35	4
0	12783	7.4	4
0	12784	7.4	4
0	12785	7.4	4
0	12786	7.4	4
0	12787	7.4	4
0	12788	7.4	4
0	12789	7.4	4
0	12790	7.4	4
0	12791	7.4	4
0	12792	7.4	4
0	12911	7.45	4
0	12912	7.45	4
0	12913	7.45	4
0	12914	7.45	4
0	12915	7.45	4
0	12956	7.5	4
0	12957	7.5	4
0	12958	7.5	4
0	12959	7.5	4
0	12960	7.5	4
0	12961	7.5	4
0	12962	7.5	4
0	12963	7.5	4
0	12964	7.5	4
0	12965	7.5	4
0	13021	7.55	4
0	13022	7.55	4
0	13023	7.55	4
0	13024	7.55	4
0	13025	7.55	4
0	13066	7.6	4
0	13067	7.6	4
0	13068	7.6	4
0	13069	7.6	4
0	13070	7.6	4
0	13071	7.6	4
0	13072	7.6	4
0	13073	7.6	4
0	13074	7.6	4
0	13075	7.6	4
0	13126	7.65	4
0	13127	7.65	4
0	13128	7.65	4
0	13129	7.65	4
0	13130	7.65	4
0	13194	7.7	4
0	13195	7.7	4
0	13196	7.7	4
0	13197	7.7	4
0	13198	7.7	4
0	13199	7.7	4
0	13200	7.7	4
0	13201	7.7	4
0	13202	7.7	4
0	13203	7.7	4
0	13441	7.75	4
0	13442	7.75	4
0	13443	7.75	4
0	13444	7.75	4
0	13445	7.75	4
0	13552	7.8	4
0	13553	7.8	4
0	13554	7.8	4
0	13555	7.8	4
0	13556	7.8	4
0	13557	7.8	4
0	13558	7.8	4
0	13559	7.8	4
0	13560	7.8	4
0	13561	7.8	4
0	13710	7.85	4
0	13711	7.85	4
0	13712	7.85	4
0	13713	7.85	4
0	13714	7.85	4
0	13823	7.9	4
0	13824	7.9	4
0	13825	7.9	4
0	13826	7.9	4
0	13827	7.9	4
0	13828	7.9	4
0	13829	7.9	4
0	13830	7.9	4
0	13831	7.9	4
0	13832	7.9	4
0	13986	7.95	4
0	13987	7.95	4
0	13988	7.95	4
0	13989	7.95	4
0	13990	7.95	4
0	14094	8	4
0	14095	8	4
0	14096	8	4
0	14097	8	4
0	14098	8	4
0	14099	8	4
0	14100	8	4
0	14101	8	4
0	14102	8	4
0	14103	8	4
0	14154	8.05	4
0	14155	8.05	4
0	14156	8.05	4
0	14157	8.05	4
0	14158	8.05	4
0	14204	8.1	4
0	14205	8.1	4
0	14206	8.1	4
0	14207	8.1	4
0	14208	8.1	4
0	14209	8.1	4
0	14210	8.1	4
0	14211	8.1	4
0	14212	8.1	4
0	14213	8.1	4
0	14270	8.15	4
0	14271	8.15	4
0	14272	8.15	4
0	14273	8.15	4
0	14274	8.15	4
0	14338	8.2	4
0	14339	8.2	4
0	14340	8.2	4
0	14341	8.2	4
0	14342	8.2	4
0	14343	8.2	4
0	14344	8.2	4
0	14345	8.2	4
0	14346	8.2	4
0	14347	8.2	4
0	14398	8.25	4
0	14399	8.25	4
0	14400	8.25	4
0	14401	8.25	4
0	14402	8.25	4
0	14632	8.3	4
0	14633	8.3	4
0	14634	8.3	4
0	14635	8.3	4
0	14636	8.3	4
0	14637	8.3	4
0	14638	8.3	4
0	14639	8.3	4
0	14640	8.3	4
0	14641	8.3	4
0	14798	8.35	4
0	14799	8.35	4
0	14800	8.35	4
0	14801	8.35	4
0	14802	8.35	4
0	14935	8.4	4
0	14936	8.4	4
0	14937	8.4	4
0	14938	8.4	4
0	14939	8.4	4
0	14940	8.4	4
0	14941	8.4	4
0	14942	8.4	4
0	14943	8.4	4
0	14944	8.4	4
0	15031	8.45	4
0	15032	8.45	4
0	15033	8.45	4
0	15034	8.45	4
0	15035	8.45	4
0	15076	8.5	4
0	15077	8.5	4
0	15078	8.5	4
0	15079	8.5	4
0	15080	8.5	4
0	15081	8.5	4
0	15082	8.5	4
0	15083	8.5	4
0	15084	8.5	4
0	15085	8.5	4
0	15182	8.55	4
0	15183	8.55	4
0	15184	8.55	4
0	15185	8.55	4
0	15186	8.55	4
0	15227	8.6	4
0	15228	8.6	4
0	15229	8.6	4
0	15230	8.6	4
0	15231	8.6	4
0	15232	8.6	4
0	15233	8.6	4
0	15234	8.6	4
0	15235	8.6	4
0	15236	8.6	4
0	15287	8.65	4
0	15288	8.65	4
0	15289	8.65	4
0	15290	8.65	4
0	15291	8.65	4
0	15332	8.7	4
0	15333	8.7	4
0	15334	8.7	4
0	15335	8.7	4
0	15336	8.7	4
0	15337	8.7	4
0	15338	8.7	4
0	15339	8.7	4
0	15340	8.7	4
0	15341	8.7	4
0	15415	8.75	4
0	15416	8.75	4
0	15417	8.75	4
0	15418	8.75	4
0	15419	8.75	4
0	15460	8.8	4
0	15461	8.8	4
0	15462	8.8	4
0	15463	8.8	4
0	15464	8.8	4
0	15465	8.8	4
0	15466	8.8	4
0	15467	8.8	4
0	15468	8.8	4
0	15469	8.8	4
0	15689	8.85	4
0	15690	8.85	4
0	15691	8.85	4
0	15692	8.85	4
0	15693	8.85	4
0	15800	8.9	4
0	15801	8.9	4
0	15802	8.9	4
0	15803	8.9	4
0	15804	8.9	4
0	15805	8.9	4
0	15806	8.9	4
0	15807	8.9	4
0	15808	8.9	4
0	15809	8.9	4
0	15952	8.95	4
0	15953	8.95	4
0	15954	8.95	4
0	15955	8.95	4
0	15956	8.95	4
0	15997	9	4
0	15998	9	4
0	15999	9	4
0	16000	9	4
0	16001	9	4
0	16002	9	4
0	16003	9	4
0	16004	9	4
0	16005	9	4
0	16006	9	4
0	16057	9.05	4
0	16058	9.05	4
0	16059	9.05	4
0	16060	9.05	4
0	16061	9.05	4
0	16158	9.1	4
0	16159	9.1	4
0	16160	9.1	4
0	16161	9.1	4
0	16162	9.1	4
0	16163	9.1	4
0	16164	9.1	4
0	16165	9.1	4
0	16166	9.1	4
0	16167	9.1	4
0	16224	9.15	4
0	16225	9.15	4
0	16226	9.15	4
0	16227	9.15	4
0	16228	9.15	4
0	16269	9.2	4
0	16270	9.2	4
0	16271	9.2	4
0	16272	9.2	4
0	16273	9.2	4
0	16274	9.2	4
0	16275	9.2	4
0	16276	9.2	4
0	16277	9.2	4
0	16278	9.2	4
0	16329	9.25	4
0	16330	9.25	4
0	16331	9.25	4
0	16332	9.25	4
0	16333	9.25	4
0	16397	9.3	4
0	16398	9.3	4
0	16399	9.3	4
0	16400	9.3	4
0	16401	9.3	4
0	16402	9.3	4
0	16403	9.3	4
0	16404	9.3	4
0	16405	9.3	4
0	16406	9.3	4
0	16457	9.35	4
0	16458	9.35	4
0	16459	9.35	4
0	16460	9.35	4
0	16461	9.35	4
0	16661	9.4	4
0	16662	9.4	4
0	16663	9.4	4
0	16664	9.4	4
0	16665	9.4	4
0	16666	9.4	4
0	16667	9.4	4
0	16668	9.4	4
0	16669	9.4	4
0	16670	9.4	4
0	16816	9.45	4
0	16817	9.45	4
0	16818	9.45	4
0	16819	9.45	4
0	16820	9.45	4
0	16935	9.5	4
0	16936	9.5	4
0	16937	9.5	4
0	16938	9.5	4
0	16939	9.5	4
0	16940	9.5	4
0	16941	9.5	4
0	16942	9.5	4
0	16943	9.5	4
0	16944	9.5	4
0	16995	9.55	4
0	16996	9.55	4
0	16997	9.55	4
0	16998	9.55	4
0	16999	9.55	4
0	17040	9.6	4
0	17041	9.6	4
0	17042	9.6	4
0	17043	9.6	4
0	17044	9.6	4
0	17045	9.6	4
0	17046	9.6	4
0	17047	9.6	4
0	17048	9.6	4
0	17049	9.6	4
0	17146	9.65	4
0	17147	9.65	4
0	17148	9.65	4
0	17149	9.65	4
0	17150	9.65	4
0	17191	9.7	4
0	17192	9.7	4
0	17193	9.7	4
0	17194	9.7	4
0	17195	9.7	4
0	17196	9.7	4
0	17197	9.7	4
0	17198	9.7	4
0	17199	9.7	4
0	17200	9.7	4
0	17251	9.75	4
0	17252	9.75	4
0	17253	9.75	4
0	17254	9.75	4
0	17255	9.75	4
0	17296	9.8	4
0	17297	9.8	4
0	17298	9.8	4
0	17299	9.8	4
0	17300	9.8	4
0	17301	9.8	4
0	17302	9.8	4
0	17303	9.8	4
0	17304	9.8	4
0	17305	9.8	4
0	17379	9.85	4
0	17380	9.85	4
0	17381	9.85	4
0	17382	9.85	4
0	17383	9.85	4
0	17424	9.9	4
0	17425	9.9	4
0	17426	9.9	4
0	17427	9.9	4
0	17428	9.9	4
0	17429	9.9	4
0	17430	9.9	4
0	17431	9.9	4
0	17432	9.9	4
0	17433	9.9	4
0	17634	9.95	4
0	17635	9.95	4
0	17636	9.95	4
0	17637	9.95	4
0	17638	9.95	4
0	17736	10	4
0	17737	10	4
0	17738	10	4
0	17739	10	4
0	17740	10	4
0	17741	10	4
0	17742	10	4
0	17743	10	4
0	17744	10	4
0	17745	10	4
0	17903	10.05	4
0	17904	10.05	4
0	17905	10.05	4
0	17906	10.05	4
0	17907	10.05	4
0	17976	10.1	4
0	17977	10.1	4
0	17978	10.1	4
0	17979	10.1	4
0	17980	10.1	4
0	17981	10.1	4
0	17982	10.1	4
0	17983	10.1	4
0	17984	10.1	4
0	17985	10.1	4
0	18042	10.15	4
0	18043	10.15	4
0	18044	10.15	4
0	18045	10.15	4
0	18046	10.15	4
0	18150	10.2	4
0	18151	10.2	4
0	18152	10.2	4
0	18153	10.2	4
0	18154	10.2	4
0	18155	10.2	4
0	18156	10.2	4
0	18157	10.2	4
0	18158	10.2	4
0	18159	10.2	4
0	18210	10.25	4
0	18211	10.25	4
0	18212	10.25	4
0	18213	10.25	4
0	18214	10.25	4
0	18255	10.3	4
0	18256	10.3	4
0	18257	10.3	4
0	18258	10.3	4
0	18259	10.3	4
0	18260	10.3	4
0	18261	10.3	4
0	18262	10.3	4
0	18263	10.3	4
0	18264	10.3	4
0	18315	10.35	4
0	18316	10.35	4
0	18317	10.35	4
0	18318	10.35	4
0	18319	10.35	4
0	18383	10.4	4
0	18384	10.4	4
0	18385	10.4	4
0	18386	10.4	4
0	18387	10.4	4
0	18388	10.4	4
0	18389	10.4	4
0	18390	10.4	4
0	18391	10.4	4
0	18392	10.4	4
0	18443	10.45	4
0	18444	10.45	4
0	18445	10.45	4
0	18446	10.45	4
0	18447	10.45	4
0	18640	10.5	4
0	18641	10.5	4
0	18642	10.5	4
0	18643	10.5	4
0	18644	10.5	4
0	18645	10.5	4
0	18646	10.5	4
0	18647	10.5	4
0	18648	10.5	4
0	18649	10.5	4
0	18781	10.55	4
0	18782	10.55	4
0	18783	10.55	4
0	18784	10.55	4
0	18785	10.55	4
0	18921	10.6	4
0	18922	10.6	4
0	18923	10.6	4
0	18924	10.6	4
0	18925	10.6	4
0	18926	10.6	4
0	18927	10.6	4
0	18928	10.6	4
0	18929	10.6	4
0	18930	10.6	4
0	19025	10.65	4
0	19026	10.65	4
0	19027	10.65	4
0	19028	10.65	4
0	19029	10.65	4
0	19075	10.7	4
0	19076	10.7	4
0	19077	10.7	4
0	19078	10.7	4
0	19079	10.7	4
0	19080	10.7	4
0	19081	10.7	4
0	19082	10.7	4
0	19083	10.7	4
0	19084	10.7	4
0	19181	10.75	4
0	19182	10.75	4
0	19183	10.75	4
0	19184	10.75	4
0	19185	10.75	4
0	19226	10.8	4
0	19227	10.8	4
0	19228	10.8	4
0	19229	10.8	4
0	19230	10.8	4
0	19231	10.8	4
0	19232	10.8	4
0	19233	10.8	4
0	19234	10.8	4
0	19235	10.8	4
0	19286	10.85	4
0	19287	10.85	4
0	19288	10.85	4
0	19289	10.85	4
0	19290	10.85	4
0	19331	10.9	4
0	19332	10.9	4
0	19333	10.9	4
0	19334	10.9	4
0	19335	10.9	4
0	19336	10.9	4
0	19337	10.9	4
0	19338	10.9	4
0	19339	10.9	4
0	19340	10.9	4
0	19414	10.95	4
0	19415	10.95	4
0	19416	10.95	4
0	19417	10.95	4
0	19418	10.95	4
0	19459	11	4
0	19460	11	4
0	19461	11	4
0	19462	11	4
0	19463	11	4
0	19464	11	4
0	19465	11	4
0	19466	11	4
0	19467	11	4
0	19468	11	4
0	19669	11.05	4
0	19670	11.05	4
0	19671	11.05	4
0	19672	11.05	4
0	19673	11.05	4
0	19776	11.1	4
0	19777	11.1	4
0	19778	11.1	4
0	19779	11.1	4
0	19780	11.1	4
0	19781	11.1	4
0	19782	11.1	4
0	19783	11.1	4
0	19784	11.1	4
0	19785	11.1	4
0	19916	11.15	4
0	19917	11.15	4
0	19918	11.15	4
0	19919	11.15	4
0	19920	11.15	4
0	20005	11.2	4
0	20006	11.2	4
0	20007	11.2	4
0	20008	11.2	4
0	20009	11.2	4
0	20010	11.2	4
0	20011	11.2	4
0	20012	11.2	4
0	20013	11.2	4
0	20014	11.2	4
0	20065	11.25	4
0	20066	11.25	4
0	20067	11.25	4
0	20068	11.25	4
0	20069	11.25	4
0	20150	11.3	4
0	20151	11.3	4
0	20152	11.3	4
0	20153	11.3	4
0	20154	11.3	4
0	20155	11.3	4
0	20156	11.3	4
0	20157	11.3	4
0	20158	11.3	4
0	20159	11.3	4
0	20210	11.35	4
0	20211	11.35	4
0	20212	11.35	4
0	20213	11.35	4
0	20214	11.35	4
0	20255	11.4	4
0	20256	11.4	4
0	20257	11.4	4
0	20258	11.4	4
0	20259	11.4	4
0	20260	11.4	4
0	20261	11.4	4
0	20262	11.4	4
0	20263	11.4	4
0	20264	11.4	4
0	20315	11.45	4
0	20316	11.45	4
0	20317	11.45	4
0	20318	11.45	4
0	20319	11.45	4
0	20386	11.5	4
0	20387	11.5	4
0	20388	11.5	4
0	20389	11.5	4
0	20390	11.5	4
0	20391	11.5	4
0	20392	11.5	4
0	20393	11.5	4
0	20394	11.5	4
0	20395	11.5	4
0	20446	11.55	4
0	20447	11.55	4
0	20448	11.55	4
0	20449	11.55	4
0	20450	11.55	4
0	20643	11.6	4
0	20644	11.6	4
0	20645	11.6	4
0	20646	11.6	4
0	20647	11.6	4
0	20648	11.6	4
0	20649	11.6	4
0	20650	11.6	4
0	20651	11.6	4
0	20652	11.6	4
0	20779	11.65	4
0	20780	11.65	4
0	20781	11.65	4
0	20782	11.65	4
0	20783	11.65	4
0	20914	11.7	4
0	20915	11.7	4
0	20916	11.7	4
0	20917	11.7	4
0	20918	11.7	4
0	20919	11.7	4
0	20920	11.7	4
0	20921	11.7	4
0	20922	11.7	4
0	20923	11.7	4
0	20997	11.75	4
0	20998	11.75	4
0	20999	11.75	4
0	21000	11.75	4
0	21001	11.75	4
0	21059	11.8	4
0	21060	11.8	4
0	21061	11.8	4
0	21062	11.8	4
0	21063	11.8	4
0	21064	11.8	4
0	21065	11.8	4
0	21066	11.8	4
0	21067	11.8	4
0	21068	11.8	4
0	21165	11.85	4
0	21166	11.85	4
0	21167	11.85	4
0	21168	11.85	4
0	21169	11.85	4
0	21210	11.9	4
0	21211	11.9	4
0	21212	11.9	4
0	21213	11.9	4
0	21214	11.9	4
0	21215	11.9	4
0	21216	11.9	4
0	21217	11.9	4
0	21218	11.9	4
0	21219	11.9	4
0	21287	11.95	4
0	21288	11.95	4
0	21289	11.95	4
0	21290	11.95	4
0	21291	11.95	4
0	21334	12	4
0	21335	12	4
0	21336	12	4
0	21337	12	4
0	21338	12	4
0	21339	12	4
0	21340	12	4
0	21341	12	4
0	21342	12	4
0	21343	12	4
0	21417	12.05	4
0	21418	12.05	4
0	21419	12.05	4
0	21420	12.05	4
0	21421	12.05	4
0	21467	12.1	4
0	21468	12.1	4
0	21469	12.1	4
0	21470	12.1	4
0	21471	12.1	4
0	21472	12.1	4
0	21473	12.1	4
0	21474	12.1	4
0	21475	12.1	4
0	21476	12.1	4
0	21708	12.15	4
0	21709	12.15	4
0	21710	12.15	4
0	21711	12.15	4
0	21712	12.15	4
0	21829	12.2	4
0	21830	12.2	4
0	21831	12.2	4
0	21832	12.2	4
0	21833	12.2	4
0	21834	12.2	4
0	21835	12.2	4
0	21836	12.2	4
0	21837	12.2	4
0	21838	12.2	4
0	21974	12.25	4
0	21975	12.25	4
0	21976	12.25	4
0	21977	12.25	4
0	21978	12.25	4
0	22070	12.3	4
0	22071	12.3	4
0	22072	12.3	4
0	22073	12.3	4
0	22074	12.3	4
0	22075	12.3	4
0	22076	12.3	4
0	22077	12.3	4
0	22078	12.3	4
0	22079	12.3	4
0	22135	12.35	4
0	22136	12.35	4
0	22137	12.35	4
0	22138	12.35	4
0	22139	12.35	4
0	22208	12.4	4
0	22209	12.4	4
0	22210	12.4	4
0	22211	12.4	4
0	22212	12.4	4
0	22213	12.4	4
0	22214	12.4	4
0	22215	12.4	4
0	22216	12.4	4
0	22217	12.4	4
0	22268	12.45	4
0	22269	12.45	4
0	22270	12.45	4
0	22271	12.45	4
0	22272	12.45	4
0	22313	12.5	4
0	22314	12.5	4
0	22315	12.5	4
0	22316	12.5	4
0	22317	12.5	4
0	22318	12.5	4
0	22319	12.5	4
0	22320	12.5	4
0	22321	12.5	4
0	22322	12.5	4
0	22373	12.55	4
0	22374	12.55	4
0	22375	12.55	4
0	22376	12.55	4
0	22377	12.55	4
0	22441	12.6	4
0	22442	12.6	4
0	22443	12.6	4
0	22444	12.6	4
0	22445	12.6	4
0	22446	12.6	4
0	22447	12.6	4
0	22448	12.6	4
0	22449	12.6	4
0	22450	12.6	4
0	22501	12.65	4
0	22502	12.65	4
0	22503	12.65	4
0	22504	12.65	4
0	22505	12.65	4
0	22719	12.7	4
0	22720	12.7	4
0	22721	12.7	4
0	22722	12.7	4
0	22723	12.7	4
0	22724	12.7	4
0	22725	12.7	4
0	22726	12.7	4
0	22727	12.7	4
0	22728	12.7	4
0	22836	12.75	4
0	22837	12.75	4
0	22838	12.75	4
0	22839	12.75	4
0	22840	12.75	4
0	22948	12.8	4
0	22949	12.8	4
0	22950	12.8	4
0	22951	12.8	4
0	22952	12.8	4
0	22953	12.8	4
0	22954	12.8	4
0	22955	12.8	4
0	22956	12.8	4
0	22957	12.8	4
0	23057	12.85	4
0	23058	12.85	4
0	23059	12.85	4
0	23060	12.85	4
0	23061	12.85	4
0	23102	12.9	4
0	23103	12.9	4
0	23104	12.9	4
0	23105	12.9	4
0	23106	12.9	4
0	23107	12.9	4
0	23108	12.9	4
0	23109	12.9	4
0	23110	12.9	4
0	23111	12.9	4
0	23185	12.95	4
0	23186	12.95	4
0	23187	12.95	4
0	23188	12.95	4
0	23189	12.95	4
0	23230	13	4
0	23231	13	4
0	23232	13	4
0	23233	13	4
0	23234	13	4
0	23235	13	4
0	23236	13	4
0	23237	13	4
0	23238	13	4
0	23239	13	4
0	23290	13.05	4
0	23291	13.05	4
0	23292	13.05	4
0	23293	13.05	4
0	23294	13.05	4
0	23340	13.1	4
0	23341	13.1	4
0	23342	13.1	4
0	23343	13.1	4
0	23344	13.1	4
0	23345	13.1	4
0	23346	13.1	4
0	23347	13.1	4
0	23348	13.1	4
0	23349	13.1	4
0	23429	13.15	4
0	23430	13.15	4
0	23431	13.15	4
0	23432	13.15	4
0	23433	13.15	4
0	23474	13.2	4
0	23475	13.2	4
0	23476	13.2	4
0	23477	13.2	4
0	23478	13.2	4
0	23479	13.2	4
0	23480	13.2	4
0	23481	13.2	4
0	23482	13.2	4
0	23483	13.2	4
0	23686	13.25	4
0	23687	13.25	4
0	23688	13.25	4
0	23689	13.25	4
0	23690	13.25	4
0	23807	13.3	4
0	23808	13.3	4
0	23809	13.3	4
0	23810	13.3	4
0	23811	13.3	4
0	23812	13.3	4
0	23813	13.3	4
0	23814	13.3	4
0	23815	13.3	4
0	23816	13.3	4
0	23912	13.35	4
0	23913	13.35	4
0	23914	13.35	4
0	23915	13.35	4
0	23916	13.35	4
0	23974	13.4	4
0	23975	13.4	4
0	23976	13.4	4
0	23977	13.4	4
0	23978	13.4	4
0	23979	13.4	4
0	23980	13.4	4
0	23981	13.4	4
0	23982	13.4	4
0	23983	13.4	4
0	24034	13.45	4
0	24035	13.45	4
0	24036	13.45	4
0	24037	13.45	4
0	24038	13.45	4
0	24102	13.5	4
0	24103	13.5	4
0	24104	13.5	4
0	24105	13.5	4
0	24106	13.5	4
0	24107	13.5	4
0	24108	13.5	4
0	24109	13.5	4
0	24110	13.5	4
0	24111	13.5	4
0	24179	13.55	4
0	24180	13.55	4
0	24181	13.55	4
0	24182	13.55	4
0	24183	13.55	4
0	24224	13.6	4
0	24225	13.6	4
0	24226	13.6	4
0	24227	13.6	4
0	24228	13.6	4
0	24229	13.6	4
0	24230	13.6	4
0	24231	13.6	4
0	24232	13.6	4
0	24233	13.6	4
0	24284	13.65	4
0	24285	13.65	4
0	24286	13.65	4
0	24287	13.65	4
0	24288	13.65	4
0	24369	13.7	4
0	24370	13.7	4
0	24371	13.7	4
0	24372	13.7	4
0	24373	13.7	4
0	24374	13.7	4
0	24375	13.7	4
0	24376	13.7	4
0	24377	13.7	4
0	24378	13.7	4
0	24429	13.75	4
0	24430	13.75	4
0	24431	13.75	4
0	24432	13.75	4
0	24433	13.75	4
0	24624	13.8	4
0	24625	13.8	4
0	24626	13.8	4
0	24627	13.8	4
0	24628	13.8	4
0	24629	13.8	4
0	24630	13.8	4
0	24631	13.8	4
0	24632	13.8	4
0	24633	13.8	4
0	24764	13.85	4
0	24765	13.85	4
0	24766	13.85	4
0	24767	13.85	4
0	24768	13.85	4
0	24876	13.9	4
0	24877	13.9	4
0	24878	13.9	4
0	24879	13.9	4
0	24880	13.9	4
0	24881	13.9	4
0	24882	13.9	4
0	24883	13.9	4
0	24884	13.9	4
0	24885	13.9	4
0	24980	13.95	4
0	24981	13.95	4
0	24982	13.95	4
0	24983	13.95	4
0	24984	13.95	4
0	25048	14	4
0	25049	14	4
0	25050	14	4
0	25051	14	4
0	25052	14	4
0	25053	14	4
0	25054	14	4
0	25055	14	4
0	25056	14	4
0	25057	14	4
0	25131	14.05	4
0	25132	14.05	4
0	25133	14.05	4
0	25134	14.05	4
0	25135	14.05	4
0	25252	14.1	4
0	25253	14.1	4
0	25254	14.1	4
0	25255	14.1	4
0	25256	14.1	4
0	25257	14.1	4
0	25258	14.1	4
0	25259	14.1	4
0	25260	14.1	4
0	25261	14.1	4
0	25351	14.15	4
0	25352	14.15	4
0	25353	14.15	4
0	25354	14.15	4
0	25355	14.15	4
0	25472	14.2	4
0	25473	14.2	4
0	25474	14.2	4
0	25475	14.2	4
0	25476	14.2	4
0	25477	14.2	4
0	25478	14.2	4
0	25479	14.2	4
0	25480	14.2	4
0	25481	14.2	4
0	25554	14.25	4
0	25555	14.25	4
0	25556	14.25	4
0	25557	14.25	4
0	25558	14.25	4
0	25616	14.3	4
0	25617	14.3	4
0	25618	14.3	4
0	25619	14.3	4
0	25620	14.3	4
0	25621	14.3	4
0	25622	14.3	4
0	25623	14.3	4
0	25624	14.3	4
0	25625	14.3	4
0	25828	14.35	4
0	25829	14.35	4
0	25830	14.35	4
0	25831	14.35	4
0	25832	14.35	4
0	25972	14.4	4
0	25973	14.4	4
0	25974	14.4	4
0	25975	14.4	4
0	25976	14.4	4
0	25977	14.4	4
0	25978	14.4	4
0	25979	14.4	4
0	25980	14.4	4
0	25981	14.4	4
0	26100	14.45	4
0	26101	14.45	4
0	26102	14.45	4
0	26103	14.45	4
0	26104	14.45	4
0	26189	14.5	4
0	26190	14.5	4
0	26191	14.5	4
0	26192	14.5	4
0	26193	14.5	4
0	26194	14.5	4
0	26195	14.5	4
0	26196	14.5	4
0	26197	14.5	4
0	26198	14.5	4
0	26272	14.55	4
0	26273	14.55	4
0	26274	14.55	4
0	26275	14.55	4
0	26276	14.55	4
0	26322	14.6	4
0	26323	14.6	4
0	26324	14.6	4
0	26325	14.6	4
0	26326	14.6	4
0	26327	14.6	4
0	26328	14.6	4
0	26329	14.6	4
0	26330	14.6	4
0	26331	14.6	4
0	26382	14.65	4
0	26383	14.65	4
0	26384	14.65	4
0	26385	14.65	4
0	26386	14.65	4
0	26427	14.7	4
0	26428	14.7	4
0	26429	14.7	4
0	26430	14.7	4
0	26431	14.7	4
0	26432	14.7	4
0	26433	14.7	4
0	26434	14.7	4
0	26435	14.7	4
0	26436	14.7	4
0	26487	14.75	4
0	26488	14.75	4
0	26489	14.75	4
0	26490	14.75	4
0	26491	14.75	4
0	26555	14.8	4
0	26556	14.8	4
0	26557	14.8	4
0	26558	14.8	4
0	26559	14.8	4
0	26560	14.8	4
0	26561	14.8	4
0	26562	14.8	4
0	26563	14.8	4
0	26564	14.8	4
0	26632	14.85	4
0	26633	14.85	4
0	26634	14.85	4
0	26635	14.85	4
0	26636	14.85	4
0	26827	14.9	4
0	26828	14.9	4
0	26829	14.9	4
0	26830	14.9	4
0	26831	14.9	4
0	26832	14.9	4
0	26833	14.9	4
0	26834	14.9	4
0	26835	14.9	4
0	26836	14.9	4
0	26967	14.95	4
0	26968	14.95	4
0	26969	14.95	4
0	26970	14.95	4
0	26971	14.95	4
0	27079	15	4
0	27080	15	4
0	27081	15	4
0	27082	15	4
0	27083	15	4
0	27084	15	4
0	27085	15	4
0	27086	15	4
0	27087	15	4
0	27088	15	4
0	27162	15.05	4
0	27163	15.05	4
0	27164	15.05	4
0	27165	15.05	4
0	27166	15.05	4
0	27235	15.1	4
0	27236	15.1	4
0	27237	15.1	4
0	27238	15.1	4
0	27239	15.1	4
0	27240	15.1	4
0	27241	15.1	4
0	27242	15.1	4
0	27243	15.1	4
0	27244	15.1	4
0	27301	15.15	4
0	27302	15.15	4
0	27303	15.15	4
0	27304	15.15	4
0	27305	15.15	4
0	27346	15.2	4
0	27347	15.2	4
0	27348	15.2	4
0	27349	15.2	4
0	27350	15.2	4
0	27351	15.2	4
0	27352	15.2	4
0	27353	15.2	4
0	27354	15.2	4
0	27355	15.2	4
0	27406	15.25	4
0	27407	15.25	4
0	27408	15.25	4
0	27409	15.25	4
0	27410	15.25	4
0	27451	15.3	4
0	27452	15.3	4
0	27453	15.3	4
0	27454	15.3	4
0	27455	15.3	4
0	27456	15.3	4
0	27457	15.3	4
0	27458	15.3	4
0	27459	15.3	4
0	27460	15.3	4
0	27534	15.35	4
0	27535	15.35	4
0	27536	15.35	4
0	27537	15.35	4
0	27538	15.35	4
0	27602	15.4	4
0	27603	15.4	4
0	27604	15.4	4
0	27605	15.4	4
0	27606	15.4	4
0	27607	15.4	4
0	27608	15.4	4
0	27609	15.4	4
0	27610	15.4	4
0	27611	15.4	4
0	27814	15.45	4
0	27815	15.45	4
0	27816	15.45	4
0	27817	15.45	4
0	27818	15.45	4
0	27958	15.5	4
0	27959	15.5	4
0	27960	15.5	4
0	27961	15.5	4
0	27962	15.5	4
0	27963	15.5	4
0	27964	15.5	4
0	27965	15.5	4
0	27966	15.5	4
0	27967	15.5	4
0	28067	15.55	4
0	28068	15.55	4
0	28069	15.55	4
0	28070	15.55	4
0	28071	15.55	4
0	28156	15.6	4
0	28157	15.6	4
0	28158	15.6	4
0	28159	15.6	4
0	28160	15.6	4
0	28161	15.6	4
0	28162	15.6	4
0	28163	15.6	4
0	28164	15.6	4
0	28165	15.6	4
0	28239	15.65	4
0	28240	15.65	4
0	28241	15.65	4
0	28242	15.65	4
0	28243	15.65	4
0	28345	15.7	4
0	28346	15.7	4
0	28347	15.7	4
0	28348	15.7	4
0	28349	15.7	4
0	28350	15.7	4
0	28351	15.7	4
0	28352	15.7	4
0	28353	15.7	4
0	28354	15.7	4
0	28446	15.75	4
0	28447	15.75	4
0	28448	15.75	4
0	28449	15.75	4
0	28450	15.75	4
0	28491	15.8	4
0	28492	15.8	4
0	28493	15.8	4
0	28494	15.8	4
0	28495	15.8	4
0	28496	15.8	4
0	28497	15.8	4
0	28498	15.8	4
0	28499	15.8	4
0	28500	15.8	4
0	28556	15.85	4
0	28557	15.85	4
0	28558	15.85	4
0	28559	15.85	4
0	28560	15.85	4
0	28624	15.9	4
0	28625	15.9	4
0	28626	15.9	4
0	28627	15.9	4
0	28628	15.9	4
0	28629	15.9	4
0	28630	15.9	4
0	28631	15.9	4
0	28632	15.9	4
0	28633	15.9	4
0	28684	15.95	4
0	28685	15.95	4
0	28686	15.95	4
0	28687	15.95	4
0	28688	15.95	4
0	28879	16	4
0	28880	16	4
0	28881	16	4
0	28882	16	4
0	28883	16	4
0	28884	16	4
0	28885	16	4
0	28886	16	4
0	28887	16	4
0	28888	16	4
0	29042	16.05	4
0	29043	16.05	4
0	29044	16.05	4
0	29045	16.05	4
0	29046	16.05	4
0	29115	16.1	4
0	29116	16.1	4
0	29117	16.1	4
0	29118	16.1	4
0	29119	16.1	4
0	29120	16.1	4
0	29121	16.1	4
0	29122	16.1	4
0	29123	16.1	4
0	29124	16.1	4
0	29225	16.15	4
0	29226	16.15	4
0	29227	16.15	4
0	29228	16.15	4
0	29229	16.15	4
0	29316	16.2	4
0	29317	16.2	4
0	29318	16.2	4
0	29319	16.2	4
0	29320	16.2	4
0	29321	16.2	4
0	29322	16.2	4
0	29323	16.2	4
0	29324	16.2	4
0	29325	16.2	4
0	29376	16.25	4
0	29377	16.25	4
0	29378	16.25	4
0	29379	16.25	4
0	29380	16.25	4
0	29421	16.3	4
0	29422	16.3	4
0	29423	16.3	4
0	29424	16.3	4
0	29425	16.3	4
0	29426	16.3	4
0	29427	16.3	4
0	29428	16.3	4
0	29429	16.3	4
0	29430	16.3	4
0	29481	16.35	4
0	29482	16.35	4
0	29483	16.35	4
0	29484	16.35	4
0	29485	16.35	4
0	29526	16.4	4
0	29527	16.4	4
0	29528	16.4	4
0	29529	16.4	4
0	29530	16.4	4
0	29531	16.4	4
0	29532	16.4	4
0	29533	16.4	4
0	29534	16.4	4
0	29535	16.4	4
0	29609	16.45	4
0	29610	16.45	4
0	29611	16.45	4
0	29612	16.45	4
0	29613	16.45	4
0	29657	16.5	4
0	29658	16.5	4
0	29659	16.5	4
0	29660	16.5	4
0	29661	16.5	4
0	29662	16.5	4
0	29663	16.5	4
0	29664	16.5	4
0	29665	16.5	4
0	29666	16.5	4
0	29869	16.55	4
0	29870	16.55	4
0	29871	16.55	4
0	29872	16.55	4
0	29873	16.55	4
0	30036	16.6	4
0	30037	16.6	4
0	30038	16.6	4
0	30039	16.6	4
0	30040	16.6	4
0	30041	16.6	4
0	30042	16.6	4
0	30043	16.6	4
0	30044	16.6	4
0	30045	16.6	4
0	30140	16.65	4
0	30141	16.65	4
0	30142	16.65	4
0	30143	16.65	4
0	30144	16.65	4
0	30208	16.7	4
0	30209	16.7	4
0	30210	16.7	4
0	30211	16.7	4
0	30212	16.7	4
0	30213	16.7	4
0	30214	16.7	4
0	30215	16.7	4
0	30216	16.7	4
0	30217	16.7	4
0	30314	16.75	4
0	30315	16.75	4
0	30316	16.75	4
0	30317	16.75	4
0	30318	16.75	4
0	30359	16.8	4
0	30360	16.8	4
0	30361	16.8	4
0	30362	16.8	4
0	30363	16.8	4
0	30364	16.8	4
0	30365	16.8	4
0	30366	16.8	4
0	30367	16.8	4
0	30368	16.8	4
0	30419	16.85	4
0	30420	16.85	4
0	30421	16.85	4
0	30422	16.85	4
0	30423	16.85	4
0	30464	16.9	4
0	30465	16.9	4
0	30466	16.9	4
0	30467	16.9	4
0	30468	16.9	4
0	30469	16.9	4
0	30470	16.9	4
0	30471	16.9	4
0	30472	16.9	4
0	30473	16.9	4
0	30524	16.95	4
0	30525	16.95	4
0	30526	16.95	4
0	30527	16.95	4
0	30528	16.95	4
0	30599	17	4
0	30600	17	4
0	30601	17	4
0	30602	17	4
0	30603	17	4
0	30604	17	4
0	30605	17	4
0	30606	17	4
0	30607	17	4
0	30608	17	4
0	30659	17.05	4
0	30660	17.05	4
0	30661	17.05	4
0	30662	17.05	4
0	30663	17.05	4
0	30859	17.1	4
0	30860	17.1	4
0	30861	17.1	4
0	30862	17.1	4
0	30863	17.1	4
0	30864	17.1	4
0	30865	17.1	4
0	30866	17.1	4
0	30867	17.1	4
0	30868	17.1	4
0	31045	17.15	4
0	31046	17.15	4
0	31047	17.15	4
0	31048	17.15	4
0	31049	17.15	4
0	31118	17.2	4
0	31119	17.2	4
0	31120	17.2	4
0	31121	17.2	4
0	31122	17.2	4
0	31123	17.2	4
0	31124	17.2	4
0	31125	17.2	4
0	31126	17.2	4
0	31127	17.2	4
0	31222	17.25	4
0	31223	17.25	4
0	31224	17.25	4
0	31225	17.25	4
0	31226	17.25	4
0	31345	17.3	4
0	31346	17.3	4
0	31347	17.3	4
0	31348	17.3	4
0	31349	17.3	4
0	31350	17.3	4
0	31351	17.3	4
0	31352	17.3	4
0	31353	17.3	4
0	31354	17.3	4
0	31427	17.35	4
0	31428	17.35	4
0	31429	17.35	4
0	31430	17.35	4
0	31431	17.35	4
0	31472	17.4	4
0	31473	17.4	4
0	31474	17.4	4
0	31475	17.4	4
0	31476	17.4	4
0	31477	17.4	4
0	31478	17.4	4
0	31479	17.4	4
0	31480	17.4	4
0	31481	17.4	4
0	31555	17.45	4
0	31556	17.45	4
0	31557	17.45	4
0	31558	17.45	4
0	31559	17.45	4
0	31600	17.5	4
0	31601	17.5	4
0	31602	17.5	4
0	31603	17.5	4
0	31604	17.5	4
0	31605	17.5	4
0	31606	17.5	4
0	31607	17.5	4
0	31608	17.5	4
0	31609	17.5	4
0	31688	17.55	4
0	31689	17.55	4
0	31690	17.55	4
0	31691	17.55	4
0	31692	17.55	4
0	31733	17.6	4
0	31734	17.6	4
0	31735	17.6	4
0	31736	17.6	4
0	31737	17.6	4
0	31738	17.6	4
0	31739	17.6	4
0	31740	17.6	4
0	31741	17.6	4
0	31742	17.6	4
0	31945	17.65	4
0	31946	17.65	4
0	31947	17.65	4
0	31948	17.65	4
0	31949	17.65	4
0	32076	17.7	4
0	32077	17.7	4
0	32078	17.7	4
0	32079	17.7	4
0	32080	17.7	4
0	32081	17.7	4
0	32082	17.7	4
0	32083	17.7	4
0	32084	17.7	4
0	32085	17.7	4
0	32180	17.75	4
0	32181	17.75	4
0	32182	17.75	4
0	32183	17.75	4
0	32184	17.75	4
0	32248	17.8	4
0	32249	17.8	4
0	32250	17.8	4
0	32251	17.8	4
0	32252	17.8	4
0	32253	17.8	4
0	32254	17.8	4
0	32255	17.8	4
0	32256	17.8	4
0	32257	17.8	4
0	32313	17.85	4
0	32314	17.85	4
0	32315	17.85	4
0	32316	17.85	4
0	32317	17.85	4
0	32358	17.9	4
0	32359	17.9	4
0	32360	17.9	4
0	32361	17.9	4
0	32362	17.9	4
0	32363	17.9	4
0	32364	17.9	4
0	32365	17.9	4
0	32366	17.9	4
0	32367	17.9	4
0	32418	17.95	4
0	32419	17.95	4
0	32420	17.95	4
0	32421	17.95	4
0	32422	17.95	4
0	32463	18	4
0	32464	18	4
0	32465	18	4
0	32466	18	4
0	32467	18	4
0	32468	18	4
0	32469	18	4
0	32470	18	4
0	32471	18	4
0	32472	18	4
0	32523	18.05	4
0	32524	18.05	4
0	32525	18.05	4
0	32526	18.05	4
0	32527	18.05	4
0	32596	18.1	4
0	32597	18.1	4
0	32598	18.1	4
0	32599	18.1	4
0	32600	18.1	4
0	32601	18.1	4
0	32602	18.1	4
0	32603	18.1	4
0	32604	18.1	4
0	32605	18.1	4
0	32662	18.15	4
0	32663	18.15	4
0	32664	18.15	4
0	32665	18.15	4
0	32666	18.15	4
0	32859	18.2	4
0	32860	18.2	4
0	32861	18.2	4
0	32862	18.2	4
0	32863	18.2	4
0	32864	18.2	4
0	32865	18.2	4
0	32866	18.2	4
0	32867	18.2	4
0	32868	18.2	4
0	32995	18.25	4
0	32996	18.25	4
0	32997	18.25	4
0	32998	18.25	4
0	32999	18.25	4
0	33084	18.3	4
0	33085	18.3	4
0	33086	18.3	4
0	33087	18.3	4
0	33088	18.3	4
0	33089	18.3	4
0	33090	18.3	4
0	33091	18.3	4
0	33092	18.3	4
0	33093	18.3	4
0	33188	18.35	4
0	33189	18.35	4
0	33190	18.35	4
0	33191	18.35	4
0	33192	18.35	4
0	33233	18.4	4
0	33234	18.4	4
0	33235	18.4	4
0	33236	18.4	4
0	33237	18.4	4
0	33238	18.4	4
0	33239	18.4	4
0	33240	18.4	4
0	33241	18.4	4
0	33242	18.4	4
0	33293	18.45	4
0	33294	18.45	4
0	33295	18.45	4
0	33296	18.45	4
0	33297	18.45	4
0	33338	18.5	4
0	33339	18.5	4
0	33340	18.5	4
0	33341	18.5	4
0	33342	18.5	4
0	33343	18.5	4
0	33344	18.5	4
0	33345	18.5	4
0	33346	18.5	4
0	33347	18.5	4
0	33398	18.55	4
0	33399	18.55	4
0	33400	18.55	4
0	33401	18.55	4
0	33402	18.55	4
0	33443	18.6	4
0	33444	18.6	4
0	33445	18.6	4
0	33446	18.6	4
0	33447	18.6	4
0	33448	18.6	4
0	33449	18.6	4
0	33450	18.6	4
0	33451	18.6	4
0	33452	18.6	4
0	33526	18.65	4
0	33527	18.65	4
0	33528	18.65	4
0	33529	18.65	4
0	33530	18.65	4
0	33571	18.7	4
0	33572	18.7	4
0	33573	18.7	4
0	33574	18.7	4
0	33575	18.7	4
0	33576	18.7	4
0	33577	18.7	4
0	33578	18.7	4
0	33579	18.7	4
0	33580	18.7	4
0	33786	18.75	4
0	33787	18.75	4
0	33788	18.75	4
0	33789	18.75	4
0	33790	18.75	4
0	33888	18.8	4
0	33889	18.8	4
0	33890	18.8	4
0	33891	18.8	4
0	33892	18.8	4
0	33893	18.8	4
0	33894	18.8	4
0	33895	18.8	4
0	33896	18.8	4
0	33897	18.8	4
0	33971	18.85	4
0	33972	18.85	4
0	33973	18.85	4
0	33974	18.85	4
0	33975	18.85	4
0	34085	18.9	4
0	34086	18.9	4
0	34087	18.9	4
0	34088	18.9	4
0	34089	18.9	4
0	34090	18.9	4
0	34091	18.9	4
0	34092	18.9	4
0	34093	18.9	4
0	34094	18.9	4
0	34145	18.95	4
0	34146	18.95	4
0	34147	18.95	4
0	34148	18.95	4
0	34149	18.95	4
0	34190	19	4
0	34191	19	4
0	34192	19	4
0	34193	19	4
0	34194	19	4
0	34195	19	4
0	34196	19	4
0	34197	19	4
0	34198	19	4
0	34199	19	4
0	34319	19.05	4
0	34320	19.05	4
0	34321	19.05	4
0	34322	19.05	4
0	34323	19.05	4
0	34369	19.1	4
0	34370	19.1	4
0	34371	19.1	4
0	34372	19.1	4
0	34373	19.1	4
0	34374	19.1	4
0	34375	19.1	4
0	34376	19.1	4
0	34377	19.1	4
0	34378	19.1	4
0	34452	19.15	4
0	34453	19.15	4
0	34454	19.15	4
0	34455	19.15	4
0	34456	19.15	4
0	34573	19.2	4
0	34574	19.2	4
0	34575	19.2	4
0	34576	19.2	4
0	34577	19.2	4
0	34578	19.2	4
0	34579	19.2	4
0	34580	19.2	4
0	34581	19.2	4
0	34582	19.2	4
0	34639	19.25	4
0	34640	19.25	4
0	34641	19.25	4
0	34642	19.25	4
0	34643	19.25	4
0	34841	19.3	4
0	34842	19.3	4
0	34843	19.3	4
0	34844	19.3	4
0	34845	19.3	4
0	34846	19.3	4
0	34847	19.3	4
0	34848	19.3	4
0	34849	19.3	4
0	34850	19.3	4
0	34977	19.35	4
0	34978	19.35	4
0	34979	19.35	4
0	34980	19.35	4
0	34981	19.35	4
0	35066	19.4	4
0	35067	19.4	4
0	35068	19.4	4
0	35069	19.4	4
0	35070	19.4	4
0	35071	19.4	4
0	35072	19.4	4
0	35073	19.4	4
0	35074	19.4	4
0	35075	19.4	4
0	35216	19.45	4
0	35217	19.45	4
0	35218	19.45	4
0	35219	19.45	4
0	35220	19.45	4
0	35261	19.5	4
0	35262	19.5	4
0	35263	19.5	4
0	35264	19.5	4
0	35265	19.5	4
0	35266	19.5	4
0	35267	19.5	4
0	35268	19.5	4
0	35269	19.5	4
0	35270	19.5	4
0	35321	19.55	4
0	35322	19.55	4
0	35323	19.55	4
0	35324	19.55	4
0	35325	19.55	4
0	35411	19.6	4
0	35412	19.6	4
0	35413	19.6	4
0	35414	19.6	4
0	35415	19.6	4
0	35416	19.6	4
0	35417	19.6	4
0	35418	19.6	4
0	35419	19.6	4
0	35420	19.6	4
0	35471	19.65	4
0	35472	19.65	4
0	35473	19.65	4
0	35474	19.65	4
0	35475	19.65	4
0	35516	19.7	4
0	35517	19.7	4
0	35518	19.7	4
0	35519	19.7	4
0	35520	19.7	4
0	35521	19.7	4
0	35522	19.7	4
0	35523	19.7	4
0	35524	19.7	4
0	35525	19.7	4
0	35599	19.75	4
0	35600	19.75	4
0	35601	19.75	4
0	35602	19.75	4
0	35603	19.75	4
0	35644	19.8	4
0	35645	19.8	4
0	35646	19.8	4
0	35647	19.8	4
0	35648	19.8	4
0	35649	19.8	4
0	35650	19.8	4
0	35651	19.8	4
0	35652	19.8	4
0	35653	19.8	4
0	35854	19.85	4
0	35855	19.85	4
0	35856	19.85	4
0	35857	19.85	4
0	35858	19.85	4
0	35956	19.9	4
0	35957	19.9	4
0	35958	19.9	4
0	35959	19.9	4
0	35960	19.9	4
0	35961	19.9	4
0	35962	19.9	4
0	35963	19.9	4
0	35964	19.9	4
0	35965	19.9	4
0	36033	19.95	4
0	36034	19.95	4
0	36035	19.95	4
0	36036	19.95	4
0	36037	19.95	4
0	36147	20	4
0	36148	20	4
0	36149	20	4
0	36150	20	4
0	36151	20	4
0	36152	20	4
0	36153	20	4
0	36154	20	4
0	36155	20	4
0	36156	20	4
0	36207	20.05	4
0	36208	20.05	4
0	36209	20.05	4
0	36210	20.05	4
0	36211	20.05	4
0	36257	20.1	4
0	36258	20.1	4
0	36259	20.1	4
0	36260	20.1	4
0	36261	20.1	4
0	36262	20.1	4
0	36263	20.1	4
0	36264	20.1	4
0	36265	20.1	4
0	36266	20.1	4
0	36363	20.15	4
0	36364	20.15	4
0	36365	20.15	4
0	36366	20.15	4
0	36367	20.15	4
0	36408	20.2	4
0	36409	20.2	4
0	36410	20.2	4
0	36411	20.2	4
0	36412	20.2	4
0	36413	20.2	4
0	36414	20.2	4
0	36415	20.2	4
0	36416	20.2	4
0	36417	20.2	4
0	36468	20.25	4
0	36469	20.25	4
0	36470	20.25	4
0	36471	20.25	4
0	36472	20.25	4
0	36536	20.3	4
0	36537	20.3	4
0	36538	20.3	4
0	36539	20.3	4
0	36540	20.3	4
0	36541	20.3	4
0	36542	20.3	4
0	36543	20.3	4
0	36544	20.3	4
0	36545	20.3	4
0	36596	20.35	4
0	36597	20.35	4
0	36598	20.35	4
0	36599	20.35	4
0	36600	20.35	4
0	36793	20.4	4
0	36794	20.4	4
0	36795	20.4	4
0	36796	20.4	4
0	36797	20.4	4
0	36798	20.4	4
0	36799	20.4	4
0	36800	20.4	4
0	36801	20.4	4
0	36802	20.4	4
0	36929	20.45	4
0	36930	20.45	4
0	36931	20.45	4
0	36932	20.45	4
0	36933	20.45	4
0	37018	20.5	4
0	37019	20.5	4
0	37020	20.5	4
0	37021	20.5	4
0	37022	20.5	4
0	37023	20.5	4
0	37024	20.5	4
0	37025	20.5	4
0	37026	20.5	4
0	37027	20.5	4
0	37168	20.55	4
0	37169	20.55	4
0	37170	20.55	4
0	37171	20.55	4
0	37172	20.55	4
0	37213	20.6	4
0	37214	20.6	4
0	37215	20.6	4
0	37216	20.6	4
0	37217	20.6	4
0	37218	20.6	4
0	37219	20.6	4
0	37220	20.6	4
0	37221	20.6	4
0	37222	20.6	4
0	37273	20.65	4
0	37274	20.65	4
0	37275	20.65	4
0	37276	20.65	4
0	37277	20.65	4
0	37358	20.7	4
0	37359	20.7	4
0	37360	20.7	4
0	37361	20.7	4
0	37362	20.7	4
0	37363	20.7	4
0	37364	20.7	4
0	37365	20.7	4
0	37366	20.7	4
0	37367	20.7	4
0	37441	20.75	4
0	37442	20.75	4
0	37443	20.75	4
0	37444	20.75	4
0	37445	20.75	4
0	37491	20.8	4
0	37492	20.8	4
0	37493	20.8	4
0	37494	20.8	4
0	37495	20.8	4
0	37496	20.8	4
0	37497	20.8	4
0	37498	20.8	4
0	37499	20.8	4
0	37500	20.8	4
0	37574	20.85	4
0	37575	20.85	4
0	37576	20.85	4
0	37577	20.85	4
0	37578	20.85	4
0	37642	20.9	4
0	37643	20.9	4
0	37644	20.9	4
0	37645	20.9	4
0	37646	20.9	4
0	37647	20.9	4
0	37648	20.9	4
0	37649	20.9	4
0	37650	20.9	4
0	37651	20.9	4
0	37852	20.95	4
0	37853	20.95	4
0	37854	20.95	4
0	37855	20.95	4
0	37856	20.95	4
0	37954	21	4
0	37955	21	4
0	37956	21	4
0	37957	21	4
0	37958	21	4
0	37959	21	4
0	37960	21	4
0	37961	21	4
0	37962	21	4
0	37963	21	4
0	38037	21.05	4
0	38038	21.05	4
0	38039	21.05	4
0	38040	21.05	4
0	38041	21.05	4
0	38150	21.1	4
0	38151	21.1	4
0	38152	21.1	4
0	38153	21.1	4
0	38154	21.1	4
0	38155	21.1	4
0	38156	21.1	4
0	38157	21.1	4
0	38158	21.1	4
0	38159	21.1	4
0	38216	21.15	4
0	38217	21.15	4
0	38218	21.15	4
0	38219	21.15	4
0	38220	21.15	4
0	38284	21.2	4
0	38285	21.2	4
0	38286	21.2	4
0	38287	21.2	4
0	38288	21.2	4
0	38289	21.2	4
0	38290	21.2	4
0	38291	21.2	4
0	38292	21.2	4
0	38293	21.2	4
0	38390	21.25	4
0	38391	21.25	4
0	38392	21.25	4
0	38393	21.25	4
0	38394	21.25	4
0	38458	21.3	4
0	38459	21.3	4
0	38460	21.3	4
0	38461	21.3	4
0	38462	21.3	4
0	38463	21.3	4
0	38464	21.3	4
0	38465	21.3	4
0	38466	21.3	4
0	38467	21.3	4
0	38581	21.35	4
0	38582	21.35	4
0	38583	21.35	4
0	38584	21.35	4
0	38585	21.35	4
0	38688	21.4	4
0	38689	21.4	4
0	38690	21.4	4
0	38691	21.4	4
0	38692	21.4	4
0	38693	21.4	4
0	38694	21.4	4
0	38695	21.4	4
0	38696	21.4	4
0	38697	21.4	4
0	38771	21.45	4
0	38772	21.45	4
0	38773	21.45	4
0	38774	21.45	4
0	38775	21.45	4
0	38971	21.5	4
0	38972	21.5	4
0	38973	21.5	4
0	38974	21.5	4
0	38975	21.5	4
0	38976	21.5	4
0	38977	21.5	4
0	38978	21.5	4
0	38979	21.5	4
0	38980	21.5	4
0	39107	21.55	4
0	39108	21.55	4
0	39109	21.55	4
0	39110	21.55	4
0	39111	21.55	4
0	39196	21.6	4
0	39197	21.6	4
0	39198	21.6	4
0	39199	21.6	4
0	39200	21.6	4
0	39201	21.6	4
0	39202	21.6	4
0	39203	21.6	4
0	39204	21.6	4
0	39205	21.6	4
0	39289	21.65	4
0	39290	21.65	4
0	39291	21.65	4
0	39292	21.65	4
0	39293	21.65	4
0	39334	21.7	4
0	39335	21.7	4
0	39336	21.7	4
0	39337	21.7	4
0	39338	21.7	4
0	39339	21.7	4
0	39340	21.7	4
0	39341	21.7	4
0	39342	21.7	4
0	39343	21.7	4
0	39399	21.75	4
0	39400	21.75	4
0	39401	21.75	4
0	39402	21.75	4
0	39403	21.75	4
0	39467	21.8	4
0	39468	21.8	4
0	39469	21.8	4
0	39470	21.8	4
0	39471	21.8	4
0	39472	21.8	4
0	39473	21.8	4
0	39474	21.8	4
0	39475	21.8	4
0	39476	21.8	4
0	39532	21.85	4
0	39533	21.85	4
0	39534	21.85	4
0	39535	21.85	4
0	39536	21.85	4
0	39577	21.9	4
0	39578	21.9	4
0	39579	21.9	4
0	39580	21.9	4
0	39581	21.9	4
0	39582	21.9	4
0	39583	21.9	4
0	39584	21.9	4
0	39585	21.9	4
0	39586	21.9	4
0	39660	21.95	4
0	39661	21.95	4
0	39662	21.95	4
0	39663	21.95	4
0	39664	21.95	4
0	39707	22	4
0	39708	22	4
0	39709	22	4
0	39710	22	4
0	39711	22	4
0	39712	22	4
0	39713	22	4
0	39714	22	4
0	39715	22	4
0	39716	22	4
0	39894	22.05	4
0	39895	22.05	4
0	39896	22.05	4
0	39897	22.05	4
0	39898	22.05	4
0	40001	22.1	4
0	40002	22.1	4
0	40003	22.1	4
0	40004	22.1	4
0	40005	22.1	4
0	40006	22.1	4
0	40007	22.1	4
0	40008	22.1	4
0	40009	22.1	4
0	40010	22.1	4
0	40111	22.15	4
0	40112	22.15	4
0	40113	22.15	4
0	40114	22.15	4
0	40115	22.15	4
0	40161	22.2	4
0	40162	22.2	4
0	40163	22.2	4
0	40164	22.2	4
0	40165	22.2	4
0	40166	22.2	4
0	40167	22.2	4
0	40168	22.2	4
0	40169	22.2	4
0	40170	22.2	4
0	40221	22.25	4
0	40222	22.25	4
0	40223	22.25	4
0	40224	22.25	4
0	40225	22.25	4
0	40266	22.3	4
0	40267	22.3	4
0	40268	22.3	4
0	40269	22.3	4
0	40270	22.3	4
0	40271	22.3	4
0	40272	22.3	4
0	40273	22.3	4
0	40274	22.3	4
0	40275	22.3	4
0	40326	22.35	4
0	40327	22.35	4
0	40328	22.35	4
0	40329	22.35	4
0	40330	22.35	4
0	40371	22.4	4
0	40372	22.4	4
0	40373	22.4	4
0	40374	22.4	4
0	40375	22.4	4
0	40376	22.4	4
0	40377	22.4	4
0	40378	22.4	4
0	40379	22.4	4
0	40380	22.4	4
0	40431	22.45	4
0	40432	22.45	4
0	40433	22.45	4
0	40434	22.45	4
0	40435	22.45	4
0	40499	22.5	4
0	40500	22.5	4
0	40501	22.5	4
0	40502	22.5	4
0	40503	22.5	4
0	40504	22.5	4
0	40505	22.5	4
0	40506	22.5	4
0	40507	22.5	4
0	40508	22.5	4
0	40559	22.55	4
0	40560	22.55	4
0	40561	22.55	4
0	40562	22.55	4
0	40563	22.55	4
0	40733	22.6	4
0	40734	22.6	4
0	40735	22.6	4
0	40736	22.6	4
0	40737	22.6	4
0	40738	22.6	4
0	40739	22.6	4
0	40740	22.6	4
0	40741	22.6	4
0	40742	22.6	4
0	40869	22.65	4
0	40870	22.65	4
0	40871	22.65	4
0	40872	22.65	4
0	40873	22.65	4
0	40937	22.7	4
0	40938	22.7	4
0	40939	22.7	4
0	40940	22.7	4
0	40941	22.7	4
0	40942	22.7	4
0	40943	22.7	4
0	40944	22.7	4
0	40945	22.7	4
0	40946	22.7	4
0	40997	22.75	4
0	40998	22.75	4
0	40999	22.75	4
0	41000	22.75	4
0	41001	22.75	4
0	41042	22.8	4
0	41043	22.8	4
0	41044	22.8	4
0	41045	22.8	4
0	41046	22.8	4
0	41047	22.8	4
0	41048	22.8	4
0	41049	22.8	4
0	41050	22.8	4
0	41051	22.8	4
0	41125	22.85	4
0	41126	22.85	4
0	41127	22.85	4
0	41128	22.85	4
0	41129	22.85	4
0	41170	22.9	4
0	41171	22.9	4
0	41172	22.9	4
0	41173	22.9	4
0	41174	22.9	4
0	41175	22.9	4
0	41176	22.9	4
0	41177	22.9	4
0	41178	22.9	4
0	41179	22.9	4
0	41235	22.95	4
0	41236	22.95	4
0	41237	22.95	4
0	41238	22.95	4
0	41239	22.95	4
0	41303	23	4
0	41304	23	4
0	41305	23	4
0	41306	23	4
0	41307	23	4
0	41308	23	4
0	41309	23	4
0	41310	23	4
0	41311	23	4
0	41312	23	4
0	41391	23.05	4
0	41392	23.05	4
0	41393	23.05	4
0	41394	23.05	4
0	41395	23.05	4
0	41464	23.1	4
0	41465	23.1	4
0	41466	23.1	4
0	41467	23.1	4
0	41468	23.1	4
0	41469	23.1	4
0	41470	23.1	4
0	41471	23.1	4
0	41472	23.1	4
0	41473	23.1	4
0	41659	23.15	4
0	41660	23.15	4
0	41661	23.15	4
0	41662	23.15	4
0	41663	23.15	4
0	41780	23.2	4
0	41781	23.2	4
0	41782	23.2	4
0	41783	23.2	4
0	41784	23.2	4
0	41785	23.2	4
0	41786	23.2	4
0	41787	23.2	4
0	41788	23.2	4
0	41789	23.2	4
0	41927	23.25	4
0	41928	23.25	4
0	41929	23.25	4
0	41930	23.25	4
0	41931	23.25	4
0	41999	23.3	4
0	42000	23.3	4
0	42001	23.3	4
0	42002	23.3	4
0	42003	23.3	4
0	42004	23.3	4
0	42005	23.3	4
0	42006	23.3	4
0	42007	23.3	4
0	42008	23.3	4
0	42082	23.35	4
0	42083	23.35	4
0	42084	23.35	4
0	42085	23.35	4
0	42086	23.35	4
0	42173	23.4	4
0	42174	23.4	4
0	42175	23.4	4
0	42176	23.4	4
0	42177	23.4	4
0	42178	23.4	4
0	42179	23.4	4
0	42180	23.4	4
0	42181	23.4	4
0	42182	23.4	4
0	42238	23.45	4
0	42239	23.45	4
0	42240	23.45	4
0	42241	23.45	4
0	42242	23.45	4
0	42346	23.5	4
0	42347	23.5	4
0	42348	23.5	4
0	42349	23.5	4
0	42350	23.5	4
0	42351	23.5	4
0	42352	23.5	4
0	42353	23.5	4
0	42354	23.5	4
0	42355	23.5	4
0	42471	23.55	4
0	42472	23.55	4
0	42473	23.55	4
0	42474	23.55	4
0	42475	23.55	4
0	42563	23.6	4
0	42564	23.6	4
0	42565	23.6	4
0	42566	23.6	4
0	42567	23.6	4
0	42568	23.6	4
0	42569	23.6	4
0	42570	23.6	4
0	42571	23.6	4
0	42572	23.6	4
0	42628	23.65	4
0	42629	23.65	4
0	42630	23.65	4
0	42631	23.65	4
0	42632	23.65	4
0	42800	23.7	4
0	42801	23.7	4
0	42802	23.7	4
0	42803	23.7	4
0	42804	23.7	4
0	42805	23.7	4
0	42806	23.7	4
0	42807	23.7	4
0	42808	23.7	4
0	42809	23.7	4
0	42917	23.75	4
0	42918	23.75	4
0	42919	23.75	4
0	42920	23.75	4
0	42921	23.75	4
0	43006	23.8	4
0	43007	23.8	4
0	43008	23.8	4
0	43009	23.8	4
0	43010	23.8	4
0	43011	23.8	4
0	43012	23.8	4
0	43013	23.8	4
0	43014	23.8	4
0	43015	23.8	4
0	43066	23.85	4
0	43067	23.85	4
0	43068	23.85	4
0	43069	23.85	4
0	43070	23.85	4
0	43134	23.9	4
0	43135	23.9	4
0	43136	23.9	4
0	43137	23.9	4
0	43138	23.9	4
0	43139	23.9	4
0	43140	23.9	4
0	43141	23.9	4
0	43142	23.9	4
0	43143	23.9	4
0	43234	23.95	4
0	43235	23.95	4
0	43236	23.95	4
0	43237	23.95	4
0	43238	23.95	4
0	43279	24	4
0	43280	24	4
0	43281	24	4
0	43282	24	4
0	43283	24	4
0	43284	24	4
0	43285	24	4
0	43286	24	4
0	43287	24	4
0	43288	24	4
0	43383	24.05	4
0	43384	24.05	4
0	43385	24.05	4
0	43386	24.05	4
0	43387	24.05	4
0	43479	24.1	4
0	43480	24.1	4
0	43481	24.1	4
0	43482	24.1	4
0	43483	24.1	4
0	43484	24.1	4
0	43485	24.1	4
0	43486	24.1	4
0	43487	24.1	4
0	43488	24.1	4
0	43568	24.15	4
0	43569	24.15	4
0	43570	24.15	4
0	43571	24.15	4
0	43572	24.15	4
0	43613	24.2	4
0	43614	24.2	4
0	43615	24.2	4
0	43616	24.2	4
0	43617	24.2	4
0	43618	24.2	4
0	43619	24.2	4
0	43620	24.2	4
0	43621	24.2	4
0	43622	24.2	4
0	43802	24.25	4
0	43803	24.25	4
0	43804	24.25	4
0	43805	24.25	4
0	43806	24.25	4
0	43923	24.3	4
0	43924	24.3	4
0	43925	24.3	4
0	43926	24.3	4
0	43927	24.3	4
0	43928	24.3	4
0	43929	24.3	4
0	43930	24.3	4
0	43931	24.3	4
0	43932	24.3	4
0	44027	24.35	4
0	44028	24.35	4
0	44029	24.35	4
0	44030	24.35	4
0	44031	24.35	4
0	44072	24.4	4
0	44073	24.4	4
0	44074	24.4	4
0	44075	24.4	4
0	44076	24.4	4
0	44077	24.4	4
0	44078	24.4	4
0	44079	24.4	4
0	44080	24.4	4
0	44081	24.4	4
0	44137	24.45	4
0	44138	24.45	4
0	44139	24.45	4
0	44140	24.45	4
0	44141	24.45	4
0	44228	24.5	4
0	44229	24.5	4
0	44230	24.5	4
0	44231	24.5	4
0	44232	24.5	4
0	44233	24.5	4
0	44234	24.5	4
0	44235	24.5	4
0	44236	24.5	4
0	44237	24.5	4
0	44288	24.55	4
0	44289	24.55	4
0	44290	24.55	4
0	44291	24.55	4
0	44292	24.55	4
0	44333	24.6	4
0	44334	24.6	4
0	44335	24.6	4
0	44336	24.6	4
0	44337	24.6	4
0	44338	24.6	4
0	44339	24.6	4
0	44340	24.6	4
0	44341	24.6	4
0	44342	24.6	4
0	44462	24.65	4
0	44463	24.65	4
0	44464	24.65	4
0	44465	24.65	4
0	44466	24.65	4
0	44530	24.7	4
0	44531	24.7	4
0	44532	24.7	4
0	44533	24.7	4
0	44534	24.7	4
0	44535	24.7	4
0	44536	24.7	4
0	44537	24.7	4
0	44538	24.7	4
0	44539	24.7	4
0	44590	24.75	4
0	44591	24.75	4
0	44592	24.75	4
0	44593	24.75	4
0	44594	24.75	4
0	44767	24.8	4
0	44768	24.8	4
0	44769	24.8	4
0	44770	24.8	4
0	44771	24.8	4
0	44772	24.8	4
0	44773	24.8	4
0	44774	24.8	4
0	44775	24.8	4
0	44776	24.8	4
0	44901	24.85	4
0	44902	24.85	4
0	44903	24.85	4
0	44904	24.85	4
0	44905	24.85	4
0	44969	24.9	4
0	44970	24.9	4
0	44971	24.9	4
0	44972	24.9	4
0	44973	24.9	4
0	44974	24.9	4
0	44975	24.9	4
0	44976	24.9	4
0	44977	24.9	4
0	44978	24.9	4
0	45029	24.95	4
0	45030	24.95	4
0	45031	24.95	4
0	45032	24.95	4
0	45033	24.95	4
0	45097	25	4
0	45098	25	4
0	45099	25	4
0	45100	25	4
0	45101	25	4
0	45102	25	4
0	45103	25	4
0	45104	25	4
0	45105	25	4
0	45106	25	4
0	45203	25.05	4
0	45204	25.05	4
0	45205	25.05	4
0	45206	25.05	4
0	45207	25.05	4
0	45253	25.1	4
0	45254	25.1	4
0	45255	25.1	4
0	45256	25.1	4
0	45257	25.1	4
0	45258	25.1	4
0	45259	25.1	4
0	45260	25.1	4
0	45261	25.1	4
0	45262	25.1	4
0	45319	25.15	4
0	45320	25.15	4
0	45321	25.15	4
0	45322	25.15	4
0	45323	25.15	4
0	45410	25.2	4
0	45411	25.2	4
0	45412	25.2	4
0	45413	25.2	4
0	45414	25.2	4
0	45415	25.2	4
0	45416	25.2	4
0	45417	25.2	4
0	45418	25.2	4
0	45419	25.2	4
0	45493	25.25	4
0	45494	25.25	4
0	45495	25.25	4
0	45496	25.25	4
0	45497	25.25	4
0	45538	25.3	4
0	45539	25.3	4
0	45540	25.3	4
0	45541	25.3	4
0	45542	25.3	4
0	45543	25.3	4
0	45544	25.3	4
0	45545	25.3	4
0	45546	25.3	4
0	45547	25.3	4
0	45727	25.35	4
0	45728	25.35	4
0	45729	25.35	4
0	45730	25.35	4
0	45731	25.35	4
0	45905	25.4	4
0	45906	25.4	4
0	45907	25.4	4
0	45908	25.4	4
0	45909	25.4	4
0	45910	25.4	4
0	45911	25.4	4
0	45912	25.4	4
0	45913	25.4	4
0	45914	25.4	4
0	46017	25.45	4
0	46018	25.45	4
0	46019	25.45	4
0	46020	25.45	4
0	46021	25.45	4
0	46062	25.5	4
0	46063	25.5	4
0	46064	25.5	4
0	46065	25.5	4
0	46066	25.5	4
0	46067	25.5	4
0	46068	25.5	4
0	46069	25.5	4
0	46070	25.5	4
0	46071	25.5	4
0	46139	25.55	4
0	46140	25.55	4
0	46141	25.55	4
0	46142	25.55	4
0	46143	25.55	4
0	46230	25.6	4
0	46231	25.6	4
0	46232	25.6	4
0	46233	25.6	4
0	46234	25.6	4
0	46235	25.6	4
0	46236	25.6	4
0	46237	25.6	4
0	46238	25.6	4
0	46239	25.6	4
0	46295	25.65	4
0	46296	25.65	4
0	46297	25.65	4
0	46298	25.65	4
0	46299	25.65	4
0	46340	25.7	4
0	46341	25.7	4
0	46342	25.7	4
0	46343	25.7	4
0	46344	25.7	4
0	46345	25.7	4
0	46346	25.7	4
0	46347	25.7	4
0	46348	25.7	4
0	46349	25.7	4
0	46446	25.75	4
0	46447	25.75	4
0	46448	25.75	4
0	46449	25.75	4
0	46450	25.75	4
0	46514	25.8	4
0	46515	25.8	4
0	46516	25.8	4
0	46517	25.8	4
0	46518	25.8	4
0	46519	25.8	4
0	46520	25.8	4
0	46521	25.8	4
0	46522	25.8	4
0	46523	25.8	4
0	46574	25.85	4
0	46575	25.85	4
0	46576	25.85	4
0	46577	25.85	4
0	46578	25.85	4
0	46746	25.9	4
0	46747	25.9	4
0	46748	25.9	4
0	46749	25.9	4
0	46750	25.9	4
0	46751	25.9	4
0	46752	25.9	4
0	46753	25.9	4
0	46754	25.9	4
0	46755	25.9	4
0	46886	25.95	4
0	46887	25.95	4
0	46888	25.95	4
0	46889	25.95	4
0	46890	25.95	4
0	46954	26	4
0	46955	26	4
0	46956	26	4
0	46957	26	4
0	46958	26	4
0	46959	26	4
0	46960	26	4
0	46961	26	4
0	46962	26	4
0	46963	26	4
0	47031	26.05	4
0	47032	26.05	4
0	47033	26.05	4
0	47034	26.05	4
0	47035	26.05	4
0	47104	26.1	4
0	47105	26.1	4
0	47106	26.1	4
0	47107	26.1	4
0	47108	26.1	4
0	47109	26.1	4
0	47110	26.1	4
0	47111	26.1	4
0	47112	26.1	4
0	47113	26.1	4
0	47216	26.15	4
0	47217	26.15	4
0	47218	26.15	4
0	47219	26.15	4
0	47220	26.15	4
0	47320	26.2	4
0	47321	26.2	4
0	47322	26.2	4
0	47323	26.2	4
0	47324	26.2	4
0	47325	26.2	4
0	47326	26.2	4
0	47327	26.2	4
0	47328	26.2	4
0	47329	26.2	4
0	47425	26.25	4
0	47426	26.25	4
0	47427	26.25	4
0	47428	26.25	4
0	47429	26.25	4
0	47510	26.3	4
0	47511	26.3	4
0	47512	26.3	4
0	47513	26.3	4
0	47514	26.3	4
0	47515	26.3	4
0	47516	26.3	4
0	47517	26.3	4
0	47518	26.3	4
0	47519	26.3	4
0	47593	26.35	4
0	47594	26.35	4
0	47595	26.35	4
0	47596	26.35	4
0	47597	26.35	4
0	47661	26.4	4
0	47662	26.4	4
0	47663	26.4	4
0	47664	26.4	4
0	47665	26.4	4
0	47666	26.4	4
0	47667	26.4	4
0	47668	26.4	4
0	47669	26.4	4
0	47670	26.4	4
0	47850	26.45	4
0	47851	26.45	4
0	47852	26.45	4
0	47853	26.45	4
0	47854	26.45	4
0	48018	26.5	4
0	48019	26.5	4
0	48020	26.5	4
0	48021	26.5	4
0	48022	26.5	4
0	48023	26.5	4
0	48024	26.5	4
0	48025	26.5	4
0	48026	26.5	4
0	48027	26.5	4
0	48122	26.55	4
0	48123	26.55	4
0	48124	26.55	4
0	48125	26.55	4
0	48126	26.55	4
0	48190	26.6	4
0	48191	26.6	4
0	48192	26.6	4
0	48193	26.6	4
0	48194	26.6	4
0	48195	26.6	4
0	48196	26.6	4
0	48197	26.6	4
0	48198	26.6	4
0	48199	26.6	4
0	48273	26.65	4
0	48274	26.65	4
0	48275	26.65	4
0	48276	26.65	4
0	48277	26.65	4
0	48364	26.7	4
0	48365	26.7	4
0	48366	26.7	4
0	48367	26.7	4
0	48368	26.7	4
0	48369	26.7	4
0	48370	26.7	4
0	48371	26.7	4
0	48372	26.7	4
0	48373	26.7	4
0	48429	26.75	4
0	48430	26.75	4
0	48431	26.75	4
0	48432	26.75	4
0	48433	26.75	4
0	48497	26.8	4
0	48498	26.8	4
0	48499	26.8	4
0	48500	26.8	4
0	48501	26.8	4
0	48502	26.8	4
0	48503	26.8	4
0	48504	26.8	4
0	48505	26.8	4
0	48506	26.8	4
0	48603	26.85	4
0	48604	26.85	4
0	48605	26.85	4
0	48606	26.85	4
0	48607	26.85	4
0	48671	26.9	4
0	48672	26.9	4
0	48673	26.9	4
0	48674	26.9	4
0	48675	26.9	4
0	48676	26.9	4
0	48677	26.9	4
0	48678	26.9	4
0	48679	26.9	4
0	48680	26.9	4
0	48754	26.95	4
0	48755	26.95	4
0	48756	26.95	4
0	48757	26.95	4
0	48758	26.95	4
0	48928	27	4
0	48929	27	4
0	48930	27	4
0	48931	27	4
0	48932	27	4
0	48933	27	4
0	48934	27	4
0	48935	27	4
0	48936	27	4
0	48937	27	4
0	49068	27.05	4
0	49069	27.05	4
0	49070	27.05	4
0	49071	27.05	4
0	49072	27.05	4
0	49141	27.1	4
0	49142	27.1	4
0	49143	27.1	4
0	49144	27.1	4
0	49145	27.1	4
0	49146	27.1	4
0	49147	27.1	4
0	49148	27.1	4
0	49149	27.1	4
0	49150	27.1	4
0	49207	27.15	4
0	49208	27.15	4
0	49209	27.15	4
0	49210	27.15	4
0	49211	27.15	4
0	49275	27.2	4
0	49276	27.2	4
0	49277	27.2	4
0	49278	27.2	4
0	49279	27.2	4
0	49280	27.2	4
0	49281	27.2	4
0	49282	27.2	4
0	49283	27.2	4
0	49284	27.2	4
0	49375	27.25	4
0	49376	27.25	4
0	49377	27.25	4
0	49378	27.25	4
0	49379	27.25	4
0	49420	27.3	4
0	49421	27.3	4
0	49422	27.3	4
0	49423	27.3	4
0	49424	27.3	4
0	49425	27.3	4
0	49426	27.3	4
0	49427	27.3	4
0	49428	27.3	4
0	49429	27.3	4
0	49503	27.35	4
0	49504	27.35	4
0	49505	27.35	4
0	49506	27.35	4
0	49507	27.35	4
0	49594	27.4	4
0	49595	27.4	4
0	49596	27.4	4
0	49597	27.4	4
0	49598	27.4	4
0	49599	27.4	4
0	49600	27.4	4
0	49601	27.4	4
0	49602	27.4	4
0	49603	27.4	4
0	49677	27.45	4
0	49678	27.45	4
0	49679	27.45	4
0	49680	27.45	4
0	49681	27.45	4
0	49727	27.5	4
0	49728	27.5	4
0	49729	27.5	4
0	49730	27.5	4
0	49731	27.5	4
0	49732	27.5	4
0	49733	27.5	4
0	49734	27.5	4
0	49735	27.5	4
0	49736	27.5	4
0	49916	27.55	4
0	49917	27.55	4
0	49918	27.55	4
0	49919	27.55	4
0	49920	27.55	4
0	50081	27.6	4
0	50082	27.6	4
0	50083	27.6	4
0	50084	27.6	4
0	50085	27.6	4
0	50086	27.6	4
0	50087	27.6	4
0	50088	27.6	4
0	50089	27.6	4
0	50090	27.6	4
0	50185	27.65	4
0	50186	27.65	4
0	50187	27.65	4
0	50188	27.65	4
0	50189	27.65	4
0	50230	27.7	4
0	50231	27.7	4
0	50232	27.7	4
0	50233	27.7	4
0	50234	27.7	4
0	50235	27.7	4
0	50236	27.7	4
0	50237	27.7	4
0	50238	27.7	4
0	50239	27.7	4
0	50313	27.75	4
0	50314	27.75	4
0	50315	27.75	4
0	50316	27.75	4
0	50317	27.75	4
0	50404	27.8	4
0	50405	27.8	4
0	50406	27.8	4
0	50407	27.8	4
0	50408	27.8	4
0	50409	27.8	4
0	50410	27.8	4
0	50411	27.8	4
0	50412	27.8	4
0	50413	27.8	4
0	50464	27.85	4
0	50465	27.85	4
0	50466	27.85	4
0	50467	27.85	4
0	50468	27.85	4
0	50509	27.9	4
0	50510	27.9	4
0	50511	27.9	4
0	50512	27.9	4
0	50513	27.9	4
0	50514	27.9	4
0	50515	27.9	4
0	50516	27.9	4
0	50517	27.9	4
0	50518	27.9	4
0	50615	27.95	4
0	50616	27.95	4
0	50617	27.95	4
0	50618	27.95	4
0	50619	27.95	4
0	50683	28	4
0	50684	28	4
0	50685	28	4
0	50686	28	4
0	50687	28	4
0	50688	28	4
0	50689	28	4
0	50690	28	4
0	50691	28	4
0	50692	28	4
0	50743	28.05	4
0	50744	28.05	4
0	50745	28.05	4
0	50746	28.05	4
0	50747	28.05	4
0	50920	28.1	4
0	50921	28.1	4
0	50922	28.1	4
0	50923	28.1	4
0	50924	28.1	4
0	50925	28.1	4
0	50926	28.1	4
0	50927	28.1	4
0	50928	28.1	4
0	50929	28.1	4
0	51087	28.15	4
0	51088	28.15	4
0	51089	28.15	4
0	51090	28.15	4
0	51091	28.15	4
0	51199	28.2	4
0	51200	28.2	4
0	51201	28.2	4
0	51202	28.2	4
0	51203	28.2	4
0	51204	28.2	4
0	51205	28.2	4
0	51206	28.2	4
0	51207	28.2	4
0	51208	28.2	4
0	51259	28.25	4
0	51260	28.25	4
0	51261	28.25	4
0	51262	28.25	4
0	51263	28.25	4
0	51327	28.3	4
0	51328	28.3	4
0	51329	28.3	4
0	51330	28.3	4
0	51331	28.3	4
0	51332	28.3	4
0	51333	28.3	4
0	51334	28.3	4
0	51335	28.3	4
0	51336	28.3	4
0	51438	28.35	4
0	51439	28.35	4
0	51440	28.35	4
0	51441	28.35	4
0	51442	28.35	4
0	51483	28.4	4
0	51484	28.4	4
0	51485	28.4	4
0	51486	28.4	4
0	51487	28.4	4
0	51488	28.4	4
0	51489	28.4	4
0	51490	28.4	4
0	51491	28.4	4
0	51492	28.4	4
0	51543	28.45	4
0	51544	28.45	4
0	51545	28.45	4
0	51546	28.45	4
0	51547	28.45	4
0	51634	28.5	4
0	51635	28.5	4
0	51636	28.5	4
0	51637	28.5	4
0	51638	28.5	4
0	51639	28.5	4
0	51640	28.5	4
0	51641	28.5	4
0	51642	28.5	4
0	51643	28.5	4
0	51717	28.55	4
0	51718	28.55	4
0	51719	28.55	4
0	51720	28.55	4
0	51721	28.55	4
0	51762	28.6	4
0	51763	28.6	4
0	51764	28.6	4
0	51765	28.6	4
0	51766	28.6	4
0	51767	28.6	4
0	51768	28.6	4
0	51769	28.6	4
0	51770	28.6	4
0	51771	28.6	4
0	51951	28.65	4
0	51952	28.65	4
0	51953	28.65	4
0	51954	28.65	4
0	51955	28.65	4
0	52095	28.7	4
0	52096	28.7	4
0	52097	28.7	4
0	52098	28.7	4
0	52099	28.7	4
0	52100	28.7	4
0	52101	28.7	4
0	52102	28.7	4
0	52103	28.7	4
0	52104	28.7	4
0	52178	28.75	4
0	52179	28.75	4
0	52180	28.75	4
0	52181	28.75	4
0	52182	28.75	4
0	52223	28.8	4
0	52224	28.8	4
0	52225	28.8	4
0	52226	28.8	4
0	52227	28.8	4
0	52228	28.8	4
0	52229	28.8	4
0	52230	28.8	4
0	52231	28.8	4
0	52232	28.8	4
0	52306	28.85	4
0	52307	28.85	4
0	52308	28.85	4
0	52309	28.85	4
0	52310	28.85	4
0	52397	28.9	4
0	52398	28.9	4
0	52399	28.9	4
0	52400	28.9	4
0	52401	28.9	4
0	52402	28.9	4
0	52403	28.9	4
0	52404	28.9	4
0	52405	28.9	4
0	52406	28.9	4
0	52462	28.95	4
0	52463	28.95	4
0	52464	28.95	4
0	52465	28.95	4
0	52466	28.95	4
0	52507	29	4
0	52508	29	4
0	52509	29	4
0	52510	29	4
0	52511	29	4
0	52512	29	4
0	52513	29	4
0	52514	29	4
0	52515	29	4
0	52516	29	4
0	52613	29.05	4
0	52614	29.05	4
0	52615	29.05	4
0	52616	29.05	4
0	52617	29.05	4
0	52703	29.1	4
0	52704	29.1	4
0	52705	29.1	4
0	52706	29.1	4
0	52707	29.1	4
0	52708	29.1	4
0	52709	29.1	4
0	52710	29.1	4
0	52711	29.1	4
0	52712	29.1	4
0	52769	29.15	4
0	52770	29.15	4
0	52771	29.15	4
0	52772	29.15	4
0	52773	29.15	4
0	52943	29.2	4
0	52944	29.2	4
0	52945	29.2	4
0	52946	29.2	4
0	52947	29.2	4
0	52948	29.2	4
0	52949	29.2	4
0	52950	29.2	4
0	52951	29.2	4
0	52952	29.2	4
0	53084	29.25	4
0	53085	29.25	4
0	53086	29.25	4
0	53087	29.25	4
0	53088	29.25	4
0	53173	29.3	4
0	53174	29.3	4
0	53175	29.3	4
0	53176	29.3	4
0	53177	29.3	4
0	53178	29.3	4
0	53179	29.3	4
0	53180	29.3	4
0	53181	29.3	4
0	53182	29.3	4
0	53233	29.35	4
0	53234	29.35	4
0	53235	29.35	4
0	53236	29.35	4
0	53237	29.35	4
0	53278	29.4	4
0	53279	29.4	4
0	53280	29.4	4
0	53281	29.4	4
0	53282	29.4	4
0	53283	29.4	4
0	53284	29.4	4
0	53285	29.4	4
0	53286	29.4	4
0	53287	29.4	4
0	53384	29.45	4
0	53385	29.45	4
0	53386	29.45	4
0	53387	29.45	4
0	53388	29.45	4
0	53434	29.5	4
0	53435	29.5	4
0	53436	29.5	4
0	53437	29.5	4
0	53438	29.5	4
0	53439	29.5	4
0	53440	29.5	4
0	53441	29.5	4
0	53442	29.5	4
0	53443	29.5	4
0	53494	29.55	4
0	53495	29.55	4
0	53496	29.55	4
0	53497	29.55	4
0	53498	29.55	4
0	53585	29.6	4
0	53586	29.6	4
0	53587	29.6	4
0	53588	29.6	4
0	53589	29.6	4
0	53590	29.6	4
0	53591	29.6	4
0	53592	29.6	4
0	53593	29.6	4
0	53594	29.6	4
0	53662	29.65	4
0	53663	29.65	4
0	53664	29.65	4
0	53665	29.65	4
0	53666	29.65	4
0	53707	29.7	4
0	53708	29.7	4
0	53709	29.7	4
0	53710	29.7	4
0	53711	29.7	4
0	53712	29.7	4
0	53713	29.7	4
0	53714	29.7	4
0	53715	29.7	4
0	53716	29.7	4
0	53894	29.75	4
0	53895	29.75	4
0	53896	29.75	4
0	53897	29.75	4
0	53898	29.75	4
0	54001	29.8	4
0	54002	29.8	4
0	54003	29.8	4
0	54004	29.8	4
0	54005	29.8	4
0	54006	29.8	4
0	54007	29.8	4
0	54008	29.8	4
0	54009	29.8	4
0	54010	29.8	4
0	54084	29.85	4
0	54085	29.85	4
0	54086	29.85	4
0	54087	29.85	4
0	54088	29.85	4
0	54129	29.9	4
0	54130	29.9	4
0	54131	29.9	4
0	54132	29.9	4
0	54133	29.9	4
0	54134	29.9	4
0	54135	29.9	4
0	54136	29.9	4
0	54137	29.9	4
0	54138	29.9	4
0	54194	29.95	4
0	54195	29.95	4
0	54196	29.95	4
0	54197	29.95	4
0	54198	29.95	4
0	54285	30	4
0	54286	30	4
0	54287	30	4
0	54288	30	4
0	54289	30	4
0	54290	30	4
0	54291	30	4
0	54292	30	4
0	54293	30	4
0	54294	30	4
0	54345	30.05	4
0	54346	30.05	4
0	54347	30.05	4
0	54348	30.05	4
0	54349	30.05	4
0	54395	30.1	4
0	54396	30.1	4
0	54397	30.1	4
0	54398	30.1	4
0	54399	30.1	4
0	54400	30.1	4
0	54401	30.1	4
0	54402	30.1	4
0	54403	30.1	4
0	54404	30.1	4
0	54501	30.15	4
0	54502	30.15	4
0	54503	30.15	4
0	54504	30.15	4
0	54505	30.15	4
0	54569	30.2	4
0	54570	30.2	4
0	54571	30.2	4
0	54572	30.2	4
0	54573	30.2	4
0	54574	30.2	4
0	54575	30.2	4
0	54576	30.2	4
0	54577	30.2	4
0	54578	30.2	4
0	54629	30.25	4
0	54630	30.25	4
0	54631	30.25	4
0	54632	30.25	4
0	54633	30.25	4
0	54803	30.3	4
0	54804	30.3	4
0	54805	30.3	4
0	54806	30.3	4
0	54807	30.3	4
0	54808	30.3	4
0	54809	30.3	4
0	54810	30.3	4
0	54811	30.3	4
0	54812	30.3	4
0	54939	30.35	4
0	54940	30.35	4
0	54941	30.35	4
0	54942	30.35	4
0	54943	30.35	4
0	55023	30.4	4
0	55024	30.4	4
0	55025	30.4	4
0	55026	30.4	4
0	55027	30.4	4
0	55028	30.4	4
0	55029	30.4	4
0	55030	30.4	4
0	55031	30.4	4
0	55032	30.4	4
0	55106	30.45	4
0	55107	30.45	4
0	55108	30.45	4
0	55109	30.45	4
0	55110	30.45	4
0	55151	30.5	4
0	55152	30.5	4
0	55153	30.5	4
0	55154	30.5	4
0	55155	30.5	4
0	55156	30.5	4
0	55157	30.5	4
0	55158	30.5	4
0	55159	30.5	4
0	55160	30.5	4
0	55251	30.55	4
0	55252	30.55	4
0	55253	30.55	4
0	55254	30.55	4
0	55255	30.55	4
0	55353	30.6	4
0	55354	30.6	4
0	55355	30.6	4
0	55356	30.6	4
0	55357	30.6	4
0	55358	30.6	4
0	55359	30.6	4
0	55360	30.6	4
0	55361	30.6	4
0	55362	30.6	4
0	55421	30.65	4
0	55422	30.65	4
0	55423	30.65	4
0	55424	30.65	4
0	55425	30.65	4
0	55517	30.7	4
0	55518	30.7	4
0	55519	30.7	4
0	55520	30.7	4
0	55521	30.7	4
0	55522	30.7	4
0	55523	30.7	4
0	55524	30.7	4
0	55525	30.7	4
0	55526	30.7	4
0	55600	30.75	4
0	55601	30.75	4
0	55602	30.75	4
0	55603	30.75	4
0	55604	30.75	4
0	55645	30.8	4
0	55646	30.8	4
0	55647	30.8	4
0	55648	30.8	4
0	55649	30.8	4
0	55650	30.8	4
0	55651	30.8	4
0	55652	30.8	4
0	55653	30.8	4
0	55654	30.8	4
0	55832	30.85	4
0	55833	30.85	4
0	55834	30.85	4
0	55835	30.85	4
0	55836	30.85	4
0	55934	30.9	4
0	55935	30.9	4
0	55936	30.9	4
0	55937	30.9	4
0	55938	30.9	4
0	55939	30.9	4
0	55940	30.9	4
0	55941	30.9	4
0	55942	30.9	4
0	55943	30.9	4
0	56038	30.95	4
0	56039	30.95	4
0	56040	30.95	4
0	56041	30.95	4
0	56042	30.95	4
0	56106	31	4
0	56107	31	4
0	56108	31	4
0	56109	31	4
0	56110	31	4
0	56111	31	4
0	56112	31	4
0	56113	31	4
0	56114	31	4
0	56115	31	4
0	56166	31.05	4
0	56167	31.05	4
0	56168	31.05	4
0	56169	31.05	4
0	56170	31.05	4
0	56285	31.1	4
0	56286	31.1	4
0	56287	31.1	4
0	56288	31.1	4
0	56289	31.1	4
0	56290	31.1	4
0	56291	31.1	4
0	56292	31.1	4
0	56293	31.1	4
0	56294	31.1	4
0	56395	31.15	4
0	56396	31.15	4
0	56397	31.15	4
0	56398	31.15	4
0	56399	31.15	4
0	56440	31.2	4
0	56441	31.2	4
0	56442	31.2	4
0	56443	31.2	4
0	56444	31.2	4
0	56445	31.2	4
0	56446	31.2	4
0	56447	31.2	4
0	56448	31.2	4
0	56449	31.2	4
0	56551	31.25	4
0	56552	31.25	4
0	56553	31.25	4
0	56554	31.25	4
0	56555	31.25	4
0	56619	31.3	4
0	56620	31.3	4
0	56621	31.3	4
0	56622	31.3	4
0	56623	31.3	4
0	56624	31.3	4
0	56625	31.3	4
0	56626	31.3	4
0	56627	31.3	4
0	56628	31.3	4
0	56679	31.35	4
0	56680	31.35	4
0	56681	31.35	4
0	56682	31.35	4
0	56683	31.35	4
0	56876	31.4	4
0	56877	31.4	4
0	56878	31.4	4
0	56879	31.4	4
0	56880	31.4	4
0	56881	31.4	4
0	56882	31.4	4
0	56883	31.4	4
0	56884	31.4	4
0	56885	31.4	4
0	57012	31.45	4
0	57013	31.45	4
0	57014	31.45	4
0	57015	31.45	4
0	57016	31.45	4
0	57104	31.5	4
0	57105	31.5	4
0	57106	31.5	4
0	57107	31.5	4
0	57108	31.5	4
0	57109	31.5	4
0	57110	31.5	4
0	57111	31.5	4
0	57112	31.5	4
0	57113	31.5	4
0	57204	31.55	4
0	57205	31.55	4
0	57206	31.55	4
0	57207	31.55	4
0	57208	31.55	4
0	57249	31.6	4
0	57250	31.6	4
0	57251	31.6	4
0	57252	31.6	4
0	57253	31.6	4
0	57254	31.6	4
0	57255	31.6	4
0	57256	31.6	4
0	57257	31.6	4
0	57258	31.6	4
0	57355	31.65	4
0	57356	31.65	4
0	57357	31.65	4
0	57358	31.65	4
0	57359	31.65	4
0	57423	31.7	4
0	57424	31.7	4
0	57425	31.7	4
0	57426	31.7	4
0	57427	31.7	4
0	57428	31.7	4
0	57429	31.7	4
0	57430	31.7	4
0	57431	31.7	4
0	57432	31.7	4
0	57483	31.75	4
0	57484	31.75	4
0	57485	31.75	4
0	57486	31.75	4
0	57487	31.75	4
0	57568	31.8	4
0	57569	31.8	4
0	57570	31.8	4
0	57571	31.8	4
0	57572	31.8	4
0	57573	31.8	4
0	57574	31.8	4
0	57575	31.8	4
0	57576	31.8	4
0	57577	31.8	4
0	57651	31.85	4
0	57652	31.85	4
0	57653	31.85	4
0	57654	31.85	4
0	57655	31.85	4
0	57696	31.9	4
0	57697	31.9	4
0	57698	31.9	4
0	57699	31.9	4
0	57700	31.9	4
0	57701	31.9	4
0	57702	31.9	4
0	57703	31.9	4
0	57704	31.9	4
0	57705	31.9	4
0	57888	31.95	4
0	57889	31.95	4
0	57890	31.95	4
0	57891	31.95	4
0	57892	31.95	4
0	57992	32	4
0	57993	32	4
0	57994	32	4
0	57995	32	4
0	57996	32	4
0	57997	32	4
0	57998	32	4
0	57999	32	4
0	58000	32	4
0	58001	32	4
0	58075	32.05	4
0	58076	32.05	4
0	58077	32.05	4
0	58078	32.05	4
0	58079	32.05	4
0	58148	32.1	4
0	58149	32.1	4
0	58150	32.1	4
0	58151	32.1	4
0	58152	32.1	4
0	58153	32.1	4
0	58154	32.1	4
0	58155	32.1	4
0	58156	32.1	4
0	58157	32.1	4
0	58260	32.15	4
0	58261	32.15	4
0	58262	32.15	4
0	58263	32.15	4
0	58264	32.15	4
0	58305	32.2	4
0	58306	32.2	4
0	58307	32.2	4
0	58308	32.2	4
0	58309	32.2	4
0	58310	32.2	4
0	58311	32.2	4
0	58312	32.2	4
0	58313	32.2	4
0	58314	32.2	4
0	58409	32.25	4
0	58410	32.25	4
0	58411	32.25	4
0	58412	32.25	4
0	58413	32.25	4
0	58454	32.3	4
0	58455	32.3	4
0	58456	32.3	4
0	58457	32.3	4
0	58458	32.3	4
0	58459	32.3	4
0	58460	32.3	4
0	58461	32.3	4
0	58462	32.3	4
0	58463	32.3	4
0	58560	32.35	4
0	58561	32.35	4
0	58562	32.35	4
0	58563	32.35	4
0	58564	32.35	4
0	58628	32.4	4
0	58629	32.4	4
0	58630	32.4	4
0	58631	32.4	4
0	58632	32.4	4
0	58633	32.4	4
0	58634	32.4	4
0	58635	32.4	4
0	58636	32.4	4
0	58637	32.4	4
0	58688	32.45	4
0	58689	32.45	4
0	58690	32.45	4
0	58691	32.45	4
0	58692	32.45	4
0	58862	32.5	4
0	58863	32.5	4
0	58864	32.5	4
0	58865	32.5	4
0	58866	32.5	4
0	58867	32.5	4
0	58868	32.5	4
0	58869	32.5	4
0	58870	32.5	4
0	58871	32.5	4
0	58998	32.55	4
0	58999	32.55	4
0	59000	32.55	4
0	59001	32.55	4
0	59002	32.55	4
0	59087	32.6	4
0	59088	32.6	4
0	59089	32.6	4
0	59090	32.6	4
0	59091	32.6	4
0	59092	32.6	4
0	59093	32.6	4
0	59094	32.6	4
0	59095	32.6	4
0	59096	32.6	4
0	59193	32.65	4
0	59194	32.65	4
0	59195	32.65	4
0	59196	32.65	4
0	59197	32.65	4
0	59284	32.7	4
0	59285	32.7	4
0	59286	32.7	4
0	59287	32.7	4
0	59288	32.7	4
0	59289	32.7	4
0	59290	32.7	4
0	59291	32.7	4
0	59292	32.7	4
0	59293	32.7	4
0	59344	32.75	4
0	59345	32.75	4
0	59346	32.75	4
0	59347	32.75	4
0	59348	32.75	4
0	59435	32.8	4
0	59436	32.8	4
0	59437	32.8	4
0	59438	32.8	4
0	59439	32.8	4
0	59440	32.8	4
0	59441	32.8	4
0	59442	32.8	4
0	59443	32.8	4
0	59444	32.8	4
0	59495	32.85	4
0	59496	32.85	4
0	59497	32.85	4
0	59498	32.85	4
0	59499	32.85	4
0	59586	32.9	4
0	59587	32.9	4
0	59588	32.9	4
0	59589	32.9	4
0	59590	32.9	4
0	59591	32.9	4
0	59592	32.9	4
0	59593	32.9	4
0	59594	32.9	4
0	59595	32.9	4
0	59669	32.95	4
0	59670	32.95	4
0	59671	32.95	4
0	59672	32.95	4
0	59673	32.95	4
0	59714	33	4
0	59715	33	4
0	59716	33	4
0	59717	33	4
0	59718	33	4
0	59719	33	4
0	59720	33	4
0	59721	33	4
0	59722	33	4
0	59723	33	4
0	59901	33.05	4
0	59902	33.05	4
0	59903	33.05	4
0	59904	33.05	4
0	59905	33.05	4
0	60008	33.1	4
0	60009	33.1	4
0	60010	33.1	4
0	60011	33.1	4
0	60012	33.1	4
0	60013	33.1	4
0	60014	33.1	4
0	60015	33.1	4
0	60016	33.1	4
0	60017	33.1	4
0	60171	33.15	4
0	60172	33.15	4
0	60173	33.15	4
0	60174	33.15	4
0	60175	33.15	4
0	60290	33.2	4
0	60291	33.2	4
0	60292	33.2	4
0	60293	33.2	4
0	60294	33.2	4
0	60295	33.2	4
0	60296	33.2	4
0	60297	33.2	4
0	60298	33.2	4
0	60299	33.2	4
0	60424	33.25	4
0	60425	33.25	4
0	60426	33.25	4
0	60427	33.25	4
0	60428	33.25	4
0	60513	33.3	4
0	60514	33.3	4
0	60515	33.3	4
0	60516	33.3	4
0	60517	33.3	4
0	60518	33.3	4
0	60519	33.3	4
0	60520	33.3	4
0	60521	33.3	4
0	60522	33.3	4
0	60617	33.35	4
0	60618	33.35	4
0	60619	33.35	4
0	60620	33.35	4
0	60621	33.35	4
0	60662	33.4	4
0	60663	33.4	4
0	60664	33.4	4
0	60665	33.4	4
0	60666	33.4	4
0	60667	33.4	4
0	60668	33.4	4
0	60669	33.4	4
0	60670	33.4	4
0	60671	33.4	4
0	60768	33.45	4
0	60769	33.45	4
0	60770	33.45	4
0	60771	33.45	4
0	60772	33.45	4
0	60836	33.5	4
0	60837	33.5	4
0	60838	33.5	4
0	60839	33.5	4
0	60840	33.5	4
0	60841	33.5	4
0	60842	33.5	4
0	60843	33.5	4
0	60844	33.5	4
0	60845	33.5	4
0	60896	33.55	4
0	60897	33.55	4
0	60898	33.55	4
0	60899	33.55	4
0	60900	33.55	4
0	61070	33.6	4
0	61071	33.6	4
0	61072	33.6	4
0	61073	33.6	4
0	61074	33.6	4
0	61075	33.6	4
0	61076	33.6	4
0	61077	33.6	4
0	61078	33.6	4
0	61079	33.6	4
0	61206	33.65	4
0	61207	33.65	4
0	61208	33.65	4
0	61209	33.65	4
0	61210	33.65	4
0	61343	33.7	4
0	61344	33.7	4
0	61345	33.7	4
0	61346	33.7	4
0	61347	33.7	4
0	61348	33.7	4
0	61349	33.7	4
0	61350	33.7	4
0	61351	33.7	4
0	61352	33.7	4
0	61466	33.75	4
0	61467	33.75	4
0	61468	33.75	4
0	61469	33.75	4
0	61470	33.75	4
0	61534	33.8	4
0	61535	33.8	4
0	61536	33.8	4
0	61537	33.8	4
0	61538	33.8	4
0	61539	33.8	4
0	61540	33.8	4
0	61541	33.8	4
0	61542	33.8	4
0	61543	33.8	4
0	61617	33.85	4
0	61618	33.85	4
0	61619	33.85	4
0	61620	33.85	4
0	61621	33.85	4
0	61685	33.9	4
0	61686	33.9	4
0	61687	33.9	4
0	61688	33.9	4
0	61689	33.9	4
0	61690	33.9	4
0	61691	33.9	4
0	61692	33.9	4
0	61693	33.9	4
0	61694	33.9	4
0	61745	33.95	4
0	61746	33.95	4
0	61747	33.95	4
0	61748	33.95	4
0	61749	33.95	4
0	61836	34	4
0	61837	34	4
0	61838	34	4
0	61839	34	4
0	61840	34	4
0	61841	34	4
0	61842	34	4
0	61843	34	4
0	61844	34	4
0	61845	34	4
0	61919	34.05	4
0	61920	34.05	4
0	61921	34.05	4
0	61922	34.05	4
0	61923	34.05	4
0	61969	34.1	4
0	61970	34.1	4
0	61971	34.1	4
0	61972	34.1	4
0	61973	34.1	4
0	61974	34.1	4
0	61975	34.1	4
0	61976	34.1	4
0	61977	34.1	4
0	61978	34.1	4
0	62164	34.15	4
0	62165	34.15	4
0	62166	34.15	4
0	62167	34.15	4
0	62168	34.15	4
0	62285	34.2	4
0	62286	34.2	4
0	62287	34.2	4
0	62288	34.2	4
0	62289	34.2	4
0	62290	34.2	4
0	62291	34.2	4
0	62292	34.2	4
0	62293	34.2	4
0	62294	34.2	4
0	62406	34.25	4
0	62407	34.25	4
0	62408	34.25	4
0	62409	34.25	4
0	62410	34.25	4
0	62497	34.3	4
0	62498	34.3	4
0	62499	34.3	4
0	62500	34.3	4
0	62501	34.3	4
0	62502	34.3	4
0	62503	34.3	4
0	62504	34.3	4
0	62505	34.3	4
0	62506	34.3	4
0	62580	34.35	4
0	62581	34.35	4
0	62582	34.35	4
0	62583	34.35	4
0	62584	34.35	4
0	62642	34.4	4
0	62643	34.4	4
0	62644	34.4	4
0	62645	34.4	4
0	62646	34.4	4
0	62647	34.4	4
0	62648	34.4	4
0	62649	34.4	4
0	62650	34.4	4
0	62651	34.4	4
0	62746	34.45	4
0	62747	34.45	4
0	62748	34.45	4
0	62749	34.45	4
0	62750	34.45	4
0	62814	34.5	4
0	62815	34.5	4
0	62816	34.5	4
0	62817	34.5	4
0	62818	34.5	4
0	62819	34.5	4
0	62820	34.5	4
0	62821	34.5	4
0	62822	34.5	4
0	62823	34.5	4
0	62920	34.55	4
0	62921	34.55	4
0	62922	34.55	4
0	62923	34.55	4
0	62924	34.55	4
0	62988	34.6	4
0	62989	34.6	4
0	62990	34.6	4
0	62991	34.6	4
0	62992	34.6	4
0	62993	34.6	4
0	62994	34.6	4
0	62995	34.6	4
0	62996	34.6	4
0	62997	34.6	4
0	63065	34.65	4
0	63066	34.65	4
0	63067	34.65	4
0	63068	34.65	4
0	63069	34.65	4
0	63237	34.7	4
0	63238	34.7	4
0	63239	34.7	4
0	63240	34.7	4
0	63241	34.7	4
[...]
0	341961	192.3	4
0	341962	192.3	4
0	341963	192.3	4
0	341964	192.3	4
0	341965	192.3	4
0	341966	192.3	4
0	341967	192.3	4
0	341968	192.3	4
0	342042	192.35	4
0	342043	192.35	4
0	342044	192.35	4
0	342045	192.35	4
0	342046	192.35	4
0	342087	192.4	4
0	342088	192.4	4
0	342089	192.4	4
0	342090	192.4	4
0	342091	192.4	4
0	342092	192.4	4
0	342093	192.4	4
0	342094	192.4	4
0	342095	192.4	4
0	342096	192.4	4
0	342192	192.45	4
0	342193	192.45	4
0	342194	192.45	4
0	342195	192.45	4
0	342196	192.45	4
0	342265	192.5	4
0	342266	192.5	4
0	342267	192.5	4
0	342268	192.5	4
0	342269	192.5	4
0	342270	192.5	4
0	342271	192.5	4
0	342272	192.5	4
0	342273	192.5	4
0	342274	192.5	4
0	342452	192.55	4
0	342453	192.55	4
0	342454	192.55	4
0	342455	192.55	4
0	342456	192.55	4
0	342554	192.6	4
0	342555	192.6	4
0	342556	192.6	4
0	342557	192.6	4
0	342558	192.6	4
0	342559	192.6	4
0	342560	192.6	4
0	342561	192.6	4
0	342562	192.6	4
0	342563	192.6	4
0	342631	192.65	4
0	342632	192.65	4
0	342633	192.65	4
0	342634	192.65	4
0	342635	192.65	4
0	342676	192.7	4
0	342677	192.7	4
0	342678	192.7	4
0	342679	192.7	4
0	342680	192.7	4
0	342681	192.7	4
0	342682	192.7	4
0	342683	192.7	4
0	342684	192.7	4
0	342685	192.7	4
0	342736	192.75	4
0	342737	192.75	4
0	342738	192.75	4
0	342739	192.75	4
0	342740	192.75	4
0	342804	192.8	4
0	342805	192.8	4
0	342806	192.8	4
0	342807	192.8	4
0	342808	192.8	4
0	342809	192.8	4
0	342810	192.8	4
0	342811	192.8	4
0	342812	192.8	4
0	342813	192.8	4
0	342892	192.85	4
0	342893	192.85	4
0	342894	192.85	4
0	342895	192.85	4
0	342896	192.85	4
0	342937	192.9	4
0	342938	192.9	4
0	342939	192.9	4
0	342940	192.9	4
0	342941	192.9	4
0	342942	192.9	4
0	342943	192.9	4
0	342944	192.9	4
0	342945	192.9	4
0	342946	192.9	4
0	343020	192.95	4
0	343021	192.95	4
0	343022	192.95	4
0	343023	192.95	4
0	343024	192.95	4
0	343088	193	4
0	343089	193	4
0	343090	193	4
0	343091	193	4
0	343092	193	4
0	343093	193	4
0	343094	193	4
0	343095	193	4
0	343096	193	4
0	343097	193	4
0	343171	193.05	4
0	343172	193.05	4
0	343173	193.05	4
0	343174	193.05	4
0	343175	193.05	4
0	343343	193.1	4
0	343344	193.1	4
0	343345	193.1	4
0	343346	193.1	4
0	343347	193.1	4
0	343348	193.1	4
0	343349	193.1	4
0	343350	193.1	4
0	343351	193.1	4
0	343352	193.1	4
0	343460	193.15	4
0	343461	193.15	4
0	343462	193.15	4
0	343463	193.15	4
0	343464	193.15	4
0	343528	193.2	4
0	343529	193.2	4
0	343530	193.2	4
0	343531	193.2	4
0	343532	193.2	4
0	343533	193.2	4
0	343534	193.2	4
0	343535	193.2	4
0	343536	193.2	4
0	343537	193.2	4
0	343588	193.25	4
0	343589	193.25	4
0	343590	193.25	4
0	343591	193.25	4
0	343592	193.25	4
0	343633	193.3	4
0	343634	193.3	4
0	343635	193.3	4
0	343636	193.3	4
0	343637	193.3	4
0	343638	193.3	4
0	343639	193.3	4
0	343640	193.3	4
0	343641	193.3	4
0	343642	193.3	4
0	343716	193.35	4
0	343717	193.35	4
0	343718	193.35	4
0	343719	193.35	4
0	343720	193.35	4
0	343784	193.4	4
0	343785	193.4	4
0	343786	193.4	4
0	343787	193.4	4
0	343788	193.4	4
0	343789	193.4	4
0	343790	193.4	4
0	343791	193.4	4
0	343792	193.4	4
0	343793	193.4	4
0	343844	193.45	4
0	343845	193.45	4
0	343846	193.45	4
0	343847	193.45	4
0	343848	193.45	4
0	343912	193.5	4
0	343913	193.5	4
0	343914	193.5	4
0	343915	193.5	4
0	343916	193.5	4
0	343917	193.5	4
0	343918	193.5	4
0	343919	193.5	4
0	343920	193.5	4
0	343921	193.5	4
0	343995	193.55	4
0	343996	193.55	4
0	343997	193.55	4
0	343998	193.55	4
0	343999	193.55	4
0	344063	193.6	4
0	344064	193.6	4
0	344065	193.6	4
0	344066	193.6	4
0	344067	193.6	4
0	344068	193.6	4
0	344069	193.6	4
0	344070	193.6	4
0	344071	193.6	4
0	344072	193.6	4
0	344273	193.65	4
0	344274	193.65	4
0	344275	193.65	4
0	344276	193.65	4
0	344277	193.65	4
0	344375	193.7	4
0	344376	193.7	4
0	344377	193.7	4
0	344378	193.7	4
0	344379	193.7	4
0	344380	193.7	4
0	344381	193.7	4
0	344382	193.7	4
0	344383	193.7	4
0	344384	193.7	4
0	344452	193.75	4
0	344453	193.75	4
0	344454	193.75	4
0	344455	193.75	4
0	344456	193.75	4
0	344520	193.8	4
0	344521	193.8	4
0	344522	193.8	4
0	344523	193.8	4
0	344524	193.8	4
0	344525	193.8	4
0	344526	193.8	4
0	344527	193.8	4
0	344528	193.8	4
0	344529	193.8	4
0	344580	193.85	4
0	344581	193.85	4
0	344582	193.85	4
0	344583	193.85	4
0	344584	193.85	4
0	344648	193.9	4
0	344649	193.9	4
0	344650	193.9	4
0	344651	193.9	4
0	344652	193.9	4
0	344653	193.9	4
0	344654	193.9	4
0	344655	193.9	4
0	344656	193.9	4
0	344657	193.9	4
0	344736	193.95	4
0	344737	193.95	4
0	344738	193.95	4
0	344739	193.95	4
0	344740	193.95	4
0	344781	194	4
0	344782	194	4
0	344783	194	4
0	344784	194	4
0	344785	194	4
0	344786	194	4
0	344787	194	4
0	344788	194	4
0	344789	194	4
0	344790	194	4
0	344887	194.05	4
0	344888	194.05	4
0	344889	194.05	4
0	344890	194.05	4
0	344891	194.05	4
0	344955	194.1	4
0	344956	194.1	4
0	344957	194.1	4
0	344958	194.1	4
0	344959	194.1	4
0	344960	194.1	4
0	344961	194.1	4
0	344962	194.1	4
0	344963	194.1	4
0	344964	194.1	4
0	345038	194.15	4
0	345039	194.15	4
0	345040	194.15	4
0	345041	194.15	4
0	345042	194.15	4
0	345238	194.2	4
0	345239	194.2	4
0	345240	194.2	4
0	345241	194.2	4
0	345242	194.2	4
0	345243	194.2	4
0	345244	194.2	4
0	345245	194.2	4
0	345246	194.2	4
0	345247	194.2	4
0	345355	194.25	4
0	345356	194.25	4
0	345357	194.25	4
0	345358	194.25	4
0	345359	194.25	4
0	345423	194.3	4
0	345424	194.3	4
0	345425	194.3	4
0	345426	194.3	4
0	345427	194.3	4
0	345428	194.3	4
0	345429	194.3	4
0	345430	194.3	4
0	345431	194.3	4
0	345432	194.3	4
0	345483	194.35	4
0	345484	194.35	4
0	345485	194.35	4
0	345486	194.35	4
0	345487	194.35	4
0	345528	194.4	4
0	345529	194.4	4
0	345530	194.4	4
0	345531	194.4	4
0	345532	194.4	4
0	345533	194.4	4
0	345534	194.4	4
0	345535	194.4	4
0	345536	194.4	4
0	345537	194.4	4
0	345611	194.45	4
0	345612	194.45	4
0	345613	194.45	4
0	345614	194.45	4
0	345615	194.45	4
0	345673	194.5	4
0	345674	194.5	4
0	345675	194.5	4
0	345676	194.5	4
0	345677	194.5	4
0	345678	194.5	4
0	345679	194.5	4
0	345680	194.5	4
0	345681	194.5	4
0	345682	194.5	4
0	345733	194.55	4
0	345734	194.55	4
0	345735	194.55	4
0	345736	194.55	4
0	345737	194.55	4
0	345806	194.6	4
0	345807	194.6	4
0	345808	194.6	4
0	345809	194.6	4
0	345810	194.6	4
0	345811	194.6	4
0	345812	194.6	4
0	345813	194.6	4
0	345814	194.6	4
0	345815	194.6	4
0	345889	194.65	4
0	345890	194.65	4
0	345891	194.65	4
0	345892	194.65	4
0	345893	194.65	4
0	345957	194.7	4
0	345958	194.7	4
0	345959	194.7	4
0	345960	194.7	4
0	345961	194.7	4
0	345962	194.7	4
0	345963	194.7	4
0	345964	194.7	4
0	345965	194.7	4
0	345966	194.7	4
0	346144	194.75	4
0	346145	194.75	4
0	346146	194.75	4
0	346147	194.75	4
0	346148	194.75	4
0	346246	194.8	4
0	346247	194.8	4
0	346248	194.8	4
0	346249	194.8	4
0	346250	194.8	4
0	346251	194.8	4
0	346252	194.8	4
0	346253	194.8	4
0	346254	194.8	4
0	346255	194.8	4
0	346329	194.85	4
0	346330	194.85	4
0	346331	194.85	4
0	346332	194.85	4
0	346333	194.85	4
0	346374	194.9	4
0	346375	194.9	4
0	346376	194.9	4
0	346377	194.9	4
0	346378	194.9	4
0	346379	194.9	4
0	346380	194.9	4
0	346381	194.9	4
0	346382	194.9	4
0	346383	194.9	4
0	346434	194.95	4
0	346435	194.95	4
0	346436	194.95	4
0	346437	194.95	4
0	346438	194.95	4
0	346502	195	4
0	346503	195	4
0	346504	195	4
0	346505	195	4
0	346506	195	4
0	346507	195	4
0	346508	195	4
0	346509	195	4
0	346510	195	4
0	346511	195	4
0	346585	195.05	4
0	346586	195.05	4
0	346587	195.05	4
0	346588	195.05	4
0	346589	195.05	4
0	346630	195.1	4
0	346631	195.1	4
0	346632	195.1	4
0	346633	195.1	4
0	346634	195.1	4
0	346635	195.1	4
0	346636	195.1	4
0	346637	195.1	4
0	346638	195.1	4
0	346639	195.1	4
0	346730	195.15	4
0	346731	195.15	4
0	346732	195.15	4
0	346733	195.15	4
0	346734	195.15	4
0	346798	195.2	4
0	346799	195.2	4
0	346800	195.2	4
0	346801	195.2	4
0	346802	195.2	4
0	346803	195.2	4
0	346804	195.2	4
0	346805	195.2	4
0	346806	195.2	4
0	346807	195.2	4
0	346881	195.25	4
0	346882	195.25	4
0	346883	195.25	4
0	346884	195.25	4
0	346885	195.25	4
0	347058	195.3	4
0	347059	195.3	4
0	347060	195.3	4
0	347061	195.3	4
0	347062	195.3	4
0	347063	195.3	4
0	347064	195.3	4
0	347065	195.3	4
0	347066	195.3	4
0	347067	195.3	4
0	347175	195.35	4
0	347176	195.35	4
0	347177	195.35	4
0	347178	195.35	4
0	347179	195.35	4
0	347266	195.4	4
0	347267	195.4	4
0	347268	195.4	4
0	347269	195.4	4
0	347270	195.4	4
0	347271	195.4	4
0	347272	195.4	4
0	347273	195.4	4
0	347274	195.4	4
0	347275	195.4	4
0	347326	195.45	4
0	347327	195.45	4
0	347328	195.45	4
0	347329	195.45	4
0	347330	195.45	4
0	347371	195.5	4
0	347372	195.5	4
0	347373	195.5	4
0	347374	195.5	4
0	347375	195.5	4
0	347376	195.5	4
0	347377	195.5	4
0	347378	195.5	4
0	347379	195.5	4
0	347380	195.5	4
0	347477	195.55	4
0	347478	195.55	4
0	347479	195.55	4
0	347480	195.55	4
0	347481	195.55	4
0	347545	195.6	4
0	347546	195.6	4
0	347547	195.6	4
0	347548	195.6	4
0	347549	195.6	4
0	347550	195.6	4
0	347551	195.6	4
0	347552	195.6	4
0	347553	195.6	4
0	347554	195.6	4
0	347605	195.65	4
0	347606	195.65	4
0	347607	195.65	4
0	347608	195.65	4
0	347609	195.65	4
0	347673	195.7	4
0	347674	195.7	4
0	347675	195.7	4
0	347676	195.7	4
0	347677	195.7	4
0	347678	195.7	4
0	347679	195.7	4
0	347680	195.7	4
0	347681	195.7	4
0	347682	195.7	4
0	347756	195.75	4
0	347757	195.75	4
0	347758	195.75	4
0	347759	195.75	4
0	347760	195.75	4
0	347847	195.8	4
0	347848	195.8	4
0	347849	195.8	4
0	347850	195.8	4
0	347851	195.8	4
0	347852	195.8	4
0	347853	195.8	4
0	347854	195.8	4
0	347855	195.8	4
0	347856	195.8	4
0	348034	195.85	4
0	348035	195.85	4
0	348036	195.85	4
0	348037	195.85	4
0	348038	195.85	4
0	348136	195.9	4
0	348137	195.9	4
0	348138	195.9	4
0	348139	195.9	4
0	348140	195.9	4
0	348141	195.9	4
0	348142	195.9	4
0	348143	195.9	4
0	348144	195.9	4
0	348145	195.9	4
0	348265	195.95	4
0	348266	195.95	4
0	348267	195.95	4
0	348268	195.95	4
0	348269	195.95	4
0	348310	196	4
0	348311	196	4
0	348312	196	4
0	348313	196	4
0	348314	196	4
0	348315	196	4
0	348316	196	4
0	348317	196	4
0	348318	196	4
0	348319	196	4
0	348370	196.05	4
0	348371	196.05	4
0	348372	196.05	4
0	348373	196.05	4
0	348374	196.05	4
0	348461	196.1	4
0	348462	196.1	4
0	348463	196.1	4
0	348464	196.1	4
0	348465	196.1	4
0	348466	196.1	4
0	348467	196.1	4
0	348468	196.1	4
0	348469	196.1	4
0	348470	196.1	4
0	348544	196.15	4
0	348545	196.15	4
0	348546	196.15	4
0	348547	196.15	4
0	348548	196.15	4
0	348589	196.2	4
0	348590	196.2	4
0	348591	196.2	4
0	348592	196.2	4
0	348593	196.2	4
0	348594	196.2	4
0	348595	196.2	4
0	348596	196.2	4
0	348597	196.2	4
0	348598	196.2	4
0	348672	196.25	4
0	348673	196.25	4
0	348674	196.25	4
0	348675	196.25	4
0	348676	196.25	4
0	348740	196.3	4
0	348741	196.3	4
0	348742	196.3	4
0	348743	196.3	4
0	348744	196.3	4
0	348745	196.3	4
0	348746	196.3	4
0	348747	196.3	4
0	348748	196.3	4
0	348749	196.3	4
0	348828	196.35	4
0	348829	196.35	4
0	348830	196.35	4
0	348831	196.35	4
0	348832	196.35	4
0	349000	196.4	4
0	349001	196.4	4
0	349002	196.4	4
0	349003	196.4	4
0	349004	196.4	4
0	349005	196.4	4
0	349006	196.4	4
0	349007	196.4	4
0	349008	196.4	4
0	349009	196.4	4
0	349117	196.45	4
0	349118	196.45	4
0	349119	196.45	4
0	349120	196.45	4
0	349121	196.45	4
0	349211	196.5	4
0	349212	196.5	4
0	349213	196.5	4
0	349214	196.5	4
0	349215	196.5	4
0	349216	196.5	4
0	349217	196.5	4
0	349218	196.5	4
0	349219	196.5	4
0	349220	196.5	4
0	349271	196.55	4
0	349272	196.55	4
0	349273	196.55	4
0	349274	196.55	4
0	349275	196.55	4
0	349316	196.6	4
0	349317	196.6	4
0	349318	196.6	4
0	349319	196.6	4
0	349320	196.6	4
0	349321	196.6	4
0	349322	196.6	4
0	349323	196.6	4
0	349324	196.6	4
0	349325	196.6	4
0	349422	196.65	4
0	349423	196.65	4
0	349424	196.65	4
0	349425	196.65	4
0	349426	196.65	4
0	349490	196.7	4
0	349491	196.7	4
0	349492	196.7	4
0	349493	196.7	4
0	349494	196.7	4
0	349495	196.7	4
0	349496	196.7	4
0	349497	196.7	4
0	349498	196.7	4
0	349499	196.7	4
0	349573	196.75	4
0	349574	196.75	4
0	349575	196.75	4
0	349576	196.75	4
0	349577	196.75	4
0	349641	196.8	4
0	349642	196.8	4
0	349643	196.8	4
0	349644	196.8	4
0	349645	196.8	4
0	349646	196.8	4
0	349647	196.8	4
0	349648	196.8	4
0	349649	196.8	4
0	349650	196.8	4
0	349724	196.85	4
0	349725	196.85	4
0	349726	196.85	4
0	349727	196.85	4
0	349728	196.85	4
0	349797	196.9	4
0	349798	196.9	4
0	349799	196.9	4
0	349800	196.9	4
0	349801	196.9	4
0	349802	196.9	4
0	349803	196.9	4
0	349804	196.9	4
0	349805	196.9	4
0	349806	196.9	4
0	349984	196.95	4
0	349985	196.95	4
0	349986	196.95	4
0	349987	196.95	4
0	349988	196.95	4
0	350088	197	4
0	350089	197	4
0	350090	197	4
0	350091	197	4
0	350092	197	4
0	350093	197	4
0	350094	197	4
0	350095	197	4
0	350096	197	4
0	350097	197	4
0	350188	197.05	4
0	350189	197.05	4
0	350190	197.05	4
0	350191	197.05	4
0	350192	197.05	4
0	350233	197.1	4
0	350234	197.1	4
0	350235	197.1	4
0	350236	197.1	4
0	350237	197.1	4
0	350238	197.1	4
0	350239	197.1	4
0	350240	197.1	4
0	350241	197.1	4
0	350242	197.1	4
0	350293	197.15	4
0	350294	197.15	4
0	350295	197.15	4
0	350296	197.15	4
0	350297	197.15	4
0	350384	197.2	4
0	350385	197.2	4
0	350386	197.2	4
0	350387	197.2	4
0	350388	197.2	4
0	350389	197.2	4
0	350390	197.2	4
0	350391	197.2	4
0	350392	197.2	4
0	350393	197.2	4
0	350467	197.25	4
0	350468	197.25	4
0	350469	197.25	4
0	350470	197.25	4
0	350471	197.25	4
0	350512	197.3	4
0	350513	197.3	4
0	350514	197.3	4
0	350515	197.3	4
0	350516	197.3	4
0	350517	197.3	4
0	350518	197.3	4
0	350519	197.3	4
0	350520	197.3	4
0	350521	197.3	4
0	350595	197.35	4
0	350596	197.35	4
0	350597	197.35	4
0	350598	197.35	4
0	350599	197.35	4
0	350663	197.4	4
0	350664	197.4	4
0	350665	197.4	4
0	350666	197.4	4
0	350667	197.4	4
0	350668	197.4	4
0	350669	197.4	4
0	350670	197.4	4
0	350671	197.4	4
0	350672	197.4	4
0	350746	197.45	4
0	350747	197.45	4
0	350748	197.45	4
0	350749	197.45	4
0	350750	197.45	4
0	350918	197.5	4
0	350919	197.5	4
0	350920	197.5	4
0	350921	197.5	4
0	350922	197.5	4
0	350923	197.5	4
0	350924	197.5	4
0	350925	197.5	4
0	350926	197.5	4
0	350927	197.5	4
0	351058	197.55	4
0	351059	197.55	4
0	351060	197.55	4
0	351061	197.55	4
0	351062	197.55	4
0	351149	197.6	4
0	351150	197.6	4
0	351151	197.6	4
0	351152	197.6	4
0	351153	197.6	4
0	351154	197.6	4
0	351155	197.6	4
0	351156	197.6	4
0	351157	197.6	4
0	351158	197.6	4
0	351209	197.65	4
0	351210	197.65	4
0	351211	197.65	4
0	351212	197.65	4
0	351213	197.65	4
0	351259	197.7	4
0	351260	197.7	4
0	351261	197.7	4
0	351262	197.7	4
0	351263	197.7	4
0	351264	197.7	4
0	351265	197.7	4
0	351266	197.7	4
0	351267	197.7	4
0	351268	197.7	4
0	351365	197.75	4
0	351366	197.75	4
0	351367	197.75	4
0	351368	197.75	4
0	351369	197.75	4
0	351427	197.8	4
0	351428	197.8	4
0	351429	197.8	4
0	351430	197.8	4
0	351431	197.8	4
0	351432	197.8	4
0	351433	197.8	4
0	351434	197.8	4
0	351435	197.8	4
0	351436	197.8	4
0	351487	197.85	4
0	351488	197.85	4
0	351489	197.85	4
0	351490	197.85	4
0	351491	197.85	4
0	351555	197.9	4
0	351556	197.9	4
0	351557	197.9	4
0	351558	197.9	4
0	351559	197.9	4
0	351560	197.9	4
0	351561	197.9	4
0	351562	197.9	4
0	351563	197.9	4
0	351564	197.9	4
0	351638	197.95	4
0	351639	197.95	4
0	351640	197.95	4
0	351641	197.95	4
0	351642	197.95	4
0	351706	198	4
0	351707	198	4
0	351708	198	4
0	351709	198	4
0	351710	198	4
0	351711	198	4
0	351712	198	4
0	351713	198	4
0	351714	198	4
0	351715	198	4
0	351893	198.05	4
0	351894	198.05	4
0	351895	198.05	4
0	351896	198.05	4
0	351897	198.05	4
0	351995	198.1	4
0	351996	198.1	4
0	351997	198.1	4
0	351998	198.1	4
0	351999	198.1	4
0	352000	198.1	4
0	352001	198.1	4
0	352002	198.1	4
0	352003	198.1	4
0	352004	198.1	4
0	352101	198.15	4
0	352102	198.15	4
0	352103	198.15	4
0	352104	198.15	4
0	352105	198.15	4
0	352146	198.2	4
0	352147	198.2	4
0	352148	198.2	4
0	352149	198.2	4
0	352150	198.2	4
0	352151	198.2	4
0	352152	198.2	4
0	352153	198.2	4
0	352154	198.2	4
0	352155	198.2	4
0	352206	198.25	4
0	352207	198.25	4
0	352208	198.25	4
0	352209	198.25	4
0	352210	198.25	4
0	352297	198.3	4
0	352298	198.3	4
0	352299	198.3	4
0	352300	198.3	4
0	352301	198.3	4
0	352302	198.3	4
0	352303	198.3	4
0	352304	198.3	4
0	352305	198.3	4
0	352306	198.3	4
0	352385	198.35	4
0	352386	198.35	4
0	352387	198.35	4
0	352388	198.35	4
0	352389	198.35	4
0	352430	198.4	4
0	352431	198.4	4
0	352432	198.4	4
0	352433	198.4	4
0	352434	198.4	4
0	352435	198.4	4
0	352436	198.4	4
0	352437	198.4	4
0	352438	198.4	4
0	352439	198.4	4
0	352513	198.45	4
0	352514	198.45	4
0	352515	198.45	4
0	352516	198.45	4
0	352517	198.45	4
0	352604	198.5	4
0	352605	198.5	4
0	352606	198.5	4
0	352607	198.5	4
0	352608	198.5	4
0	352609	198.5	4
0	352610	198.5	4
0	352611	198.5	4
0	352612	198.5	4
0	352613	198.5	4
0	352687	198.55	4
0	352688	198.55	4
0	352689	198.55	4
0	352690	198.55	4
0	352691	198.55	4
0	352859	198.6	4
0	352860	198.6	4
0	352861	198.6	4
0	352862	198.6	4
0	352863	198.6	4
0	352864	198.6	4
0	352865	198.6	4
0	352866	198.6	4
0	352867	198.6	4
0	352868	198.6	4
0	352976	198.65	4
0	352977	198.65	4
0	352978	198.65	4
0	352979	198.65	4
0	352980	198.65	4
0	353067	198.7	4
0	353068	198.7	4
0	353069	198.7	4
0	353070	198.7	4
0	353071	198.7	4
0	353072	198.7	4
0	353073	198.7	4
0	353074	198.7	4
0	353075	198.7	4
0	353076	198.7	4
0	353127	198.75	4
0	353128	198.75	4
0	353129	198.75	4
0	353130	198.75	4
0	353131	198.75	4
0	353172	198.8	4
0	353173	198.8	4
0	353174	198.8	4
0	353175	198.8	4
0	353176	198.8	4
0	353177	198.8	4
0	353178	198.8	4
0	353179	198.8	4
0	353180	198.8	4
0	353181	198.8	4
0	353278	198.85	4
0	353279	198.85	4
0	353280	198.85	4
0	353281	198.85	4
0	353282	198.85	4
0	353363	198.9	4
0	353364	198.9	4
0	353365	198.9	4
0	353366	198.9	4
0	353367	198.9	4
0	353368	198.9	4
0	353369	198.9	4
0	353370	198.9	4
0	353371	198.9	4
0	353372	198.9	4
0	353423	198.95	4
0	353424	198.95	4
0	353425	198.95	4
0	353426	198.95	4
0	353427	198.95	4
0	353491	199	4
0	353492	199	4
0	353493	199	4
0	353494	199	4
0	353495	199	4
0	353496	199	4
0	353497	199	4
0	353498	199	4
0	353499	199	4
0	353500	199	4
0	353597	199.05	4
0	353598	199.05	4
0	353599	199.05	4
0	353600	199.05	4
0	353601	199.05	4
0	353665	199.1	4
0	353666	199.1	4
0	353667	199.1	4
0	353668	199.1	4
0	353669	199.1	4
0	353670	199.1	4
0	353671	199.1	4
0	353672	199.1	4
0	353673	199.1	4
0	353674	199.1	4
0	353875	199.15	4
0	353876	199.15	4
0	353877	199.15	4
0	353878	199.15	4
0	353879	199.15	4
0	353977	199.2	4
0	353978	199.2	4
0	353979	199.2	4
0	353980	199.2	4
0	353981	199.2	4
0	353982	199.2	4
0	353983	199.2	4
0	353984	199.2	4
0	353985	199.2	4
0	353986	199.2	4
0	354083	199.25	4
0	354084	199.25	4
0	354085	199.25	4
0	354086	199.25	4
0	354087	199.25	4
0	354151	199.3	4
0	354152	199.3	4
0	354153	199.3	4
0	354154	199.3	4
0	354155	199.3	4
0	354156	199.3	4
0	354157	199.3	4
0	354158	199.3	4
0	354159	199.3	4
0	354160	199.3	4
0	354211	199.35	4
0	354212	199.35	4
0	354213	199.35	4
0	354214	199.35	4
0	354215	199.35	4
0	354302	199.4	4
0	354303	199.4	4
0	354304	199.4	4
0	354305	199.4	4
0	354306	199.4	4
0	354307	199.4	4
0	354308	199.4	4
0	354309	199.4	4
0	354310	199.4	4
0	354311	199.4	4
0	354384	199.45	4
0	354385	199.45	4
0	354386	199.45	4
0	354387	199.45	4
0	354388	199.45	4
0	354429	199.5	4
0	354430	199.5	4
0	354431	199.5	4
0	354432	199.5	4
0	354433	199.5	4
0	354434	199.5	4
0	354435	199.5	4
0	354436	199.5	4
0	354437	199.5	4
0	354438	199.5	4
0	354512	199.55	4
0	354513	199.55	4
0	354514	199.55	4
0	354515	199.55	4
0	354516	199.55	4
0	354580	199.6	4
0	354581	199.6	4
0	354582	199.6	4
0	354583	199.6	4
0	354584	199.6	4
0	354585	199.6	4
0	354586	199.6	4
0	354587	199.6	4
0	354588	199.6	4
0	354589	199.6	4
0	354663	199.65	4
0	354664	199.65	4
0	354665	199.65	4
0	354666	199.65	4
0	354667	199.65	4
0	354858	199.7	4
0	354859	199.7	4
0	354860	199.7	4
0	354861	199.7	4
0	354862	199.7	4
0	354863	199.7	4
0	354864	199.7	4
0	354865	199.7	4
0	354866	199.7	4
0	354867	199.7	4
0	354975	199.75	4
0	354976	199.75	4
0	354977	199.75	4
0	354978	199.75	4
0	354979	199.75	4
0	355060	199.8	4
0	355061	199.8	4
0	355062	199.8	4
0	355063	199.8	4
0	355064	199.8	4
0	355065	199.8	4
0	355066	199.8	4
0	355067	199.8	4
0	355068	199.8	4
0	355069	199.8	4
0	355143	199.85	4
0	355144	199.85	4
0	355145	199.85	4
0	355146	199.85	4
0	355147	199.85	4
0	355188	199.9	4
0	355189	199.9	4
0	355190	199.9	4
0	355191	199.9	4
0	355192	199.9	4
0	355193	199.9	4
0	355194	199.9	4
0	355195	199.9	4
0	355196	199.9	4
0	355197	199.9	4
0	355288	199.95	4
0	355289	199.95	4
0	355290	199.95	4
0	355291	199.95	4
0	355292	199.95	4
0	355356	200	4
0	355357	200	4
0	355358	200	4
0	355359	200	4
0	355360	200	4
0	355361	200	4
0	355362	200	4
0	355363	200	4
0	355364	200	4
0	355365	200	4

