version 2
run C-0-20191021-22:31:36-10693
attr configname C
attr datetime 20191021-22:31:36
attr experiment C
attr inifile GwSimV1.ini
attr iterationvars ""
attr iterationvarsf ""
attr measurement ""
attr network NetworkTormV2
attr processid 10693
attr repetition 0
attr replication #0
attr resultdir results
attr runnumber 0
attr seedset 0
param **.mobility.traceFile "\"AllPaths/sPaths/C.movements\""
param **.numNodes 5
param **.application.dataGenerationInterval 1s
param **.application.dataSizeInBytes 10
param **.application.ttl 999999s
param **application.nodesThatGen false
param **application.nodesGenMsg "\"\""
param **application.startMultipleMsg false
param **application.numMultipleMsg 100
param **application.hopsListSize 50
param **.application.endGeneratingMsg 99s
param **.routingLayer "\"RoutingLqeGw\""
param **.routing.maximumCacheSize 5000byte
param **.routing.maximumHopCount 25
param **.routing.useTTL false
param **.routing.waitBFsend 0.1
param **.routing.max_age 999999s
param **.routing.gateway_list "\"\""
param **.routing.actual_gateway "\"\""
param **.routing.gwCheckPeriod 5s
param **.neighboring.resetGPeriod 999s
param **.wirelessIfc.wirelessRange 40m
param **.numNodes 2
param **.application.usedRNG 1
param **.application.dataGenerationInterval 1s
param **.application.dataSizeInBytes 10
param **.application.ttl 999999s
param **application.destinationAddr "\"Wf:00:00:00:00:02\""
param **application.destinationBTAddr "\"Bt:00:00:00:00:02\""
param **application.nodesThatGen true
param **application.nodesGenMsg "\"0\""
param **application.startMultipleMsg true
param **application.numMultipleMsg 100
param **application.hopsListSize 50
param **.application.endGeneratingMsg 999999s
param **.routingLayer "\"RoutingLqeGw\""
param **.routing.maximumCacheSize 5000byte
param **.routing.maximumHopCount 25
param **.routing.useTTL false
param **.routing.waitBFsend 0.1
param **.routing.max_age 999999s
param **.routing.gateway_list "\"\""
param **.routing.actual_gateway "\"\""
param **.routing.gwCheckPeriod 5s
param **.neighboring.antiEntropyInterval 500ms
param **.neighboring.maximumRandomBackoffDuration 1s
param **.neighboring.delayPerDataMsg 0.1
param **neighboring.usedRNG 2
param **.neighboring.GWAddr "\"Wf:00:00:00:00:02\""
param **.neighboring.sendWifiFirst true
param **.neighboring.maxLengthGraph 20
param **.neighboring.max_age 999999s
param **.neighboring.max_absent_time 1s
param **.wirelessIfc.wirelessRange 40m
param **.wirelessIfc.neighbourScanInterval 50ms
param **.wirelessIfc.bandwidthBitRate 100000bps
param **.wirelessIfc.wirelessHeaderSize 32byte
param **.wirelessIfc.minSSI -90
param **.wirelessIfc.limitQueueTime 400ms
param **.wirelessIfc.my_limit_rate 0bps
param **.bluetoothIfc.wirelessRange 40m
param **.bluetoothIfc.neighbourScanInterval 100ms
param **.bluetoothIfc.bandwidthBitRate 100000bps
param **.bluetoothIfc.wirelessHeaderSize 16byte
param **.bluetoothIfc.minSSI -90
param **.mobilityType "\"BonnMotionMobility\""
param **.mobility.traceFile "\"paths/Moves2.movements\""
param **.mobility.is3D false
param **.mobility.nodeId -1

vector 0 NetworkTormV2 neighbourhoodSize:vector ETV
attr source neighbourhoodSize
vector 1 NetworkTormV2 deliveryRatio:vector ETV
attr source sum(totalDataBytesReceived)/sum(totalDataBytesReceivableByAllNodes)
vector 2 NetworkTormV2 dataBytesReceivedSum:vector ETV
attr source sum(dataBytesReceived)
vector 3 NetworkTormV2 totalBytesReceivedSum:vector ETV
attr source sum(totalBytesReceived)
0	16	0.05	4
0	17	0.05	4
0	18	0.05	4
0	19	0.05	4
0	20	0.05	4
0	62	0.1	4
0	64	0.1	4
0	66	0.1	4
0	68	0.1	4
0	70	0.1	4
0	71	0.1	4
0	72	0.1	4
0	73	0.1	4
0	74	0.1	4
0	75	0.1	4
0	131	0.15	4
0	132	0.15	4
0	133	0.15	4
0	134	0.15	4
0	135	0.15	4
0	176	0.2	4
0	177	0.2	4
0	178	0.2	4
0	179	0.2	4
0	180	0.2	4
0	181	0.2	4
0	182	0.2	4
0	183	0.2	4
0	184	0.2	4
0	185	0.2	4
0	236	0.25	4
0	237	0.25	4
0	238	0.25	4
0	239	0.25	4
0	240	0.25	4
0	281	0.3	4
0	282	0.3	4
0	283	0.3	4
0	284	0.3	4
0	285	0.3	4
0	286	0.3	4
0	287	0.3	4
0	288	0.3	4
0	289	0.3	4
0	290	0.3	4
0	341	0.35	4
0	342	0.35	4
0	343	0.35	4
0	344	0.35	4
0	345	0.35	4
0	386	0.4	4
0	387	0.4	4
0	388	0.4	4
0	389	0.4	4
0	390	0.4	4
0	391	0.4	4
0	392	0.4	4
0	393	0.4	4
0	394	0.4	4
0	395	0.4	4
0	446	0.45	4
0	447	0.45	4
0	448	0.45	4
0	449	0.45	4
0	450	0.45	4
0	491	0.5	4
0	492	0.5	4
0	493	0.5	4
0	494	0.5	4
0	495	0.5	4
0	496	0.5	4
0	497	0.5	4
0	498	0.5	4
0	499	0.5	4
0	500	0.5	4
0	551	0.55	4
0	552	0.55	4
0	553	0.55	4
0	554	0.55	4
0	555	0.55	4
0	596	0.6	4
0	597	0.6	4
0	598	0.6	4
0	599	0.6	4
0	600	0.6	4
0	601	0.6	4
0	602	0.6	4
0	603	0.6	4
0	604	0.6	4
0	605	0.6	4
0	656	0.65	4
0	657	0.65	4
0	658	0.65	4
0	659	0.65	4
0	660	0.65	4
0	701	0.7	4
0	702	0.7	4
0	703	0.7	4
0	704	0.7	4
0	705	0.7	4
0	706	0.7	4
0	707	0.7	4
0	708	0.7	4
0	709	0.7	4
0	710	0.7	4
0	761	0.75	4
0	762	0.75	4
0	763	0.75	4
0	764	0.75	4
0	765	0.75	4
0	806	0.8	4
0	807	0.8	4
0	808	0.8	4
0	809	0.8	4
0	810	0.8	4
0	811	0.8	4
0	812	0.8	4
0	813	0.8	4
0	814	0.8	4
0	815	0.8	4
0	866	0.85	4
0	867	0.85	4
0	868	0.85	4
0	869	0.85	4
0	870	0.85	4
0	911	0.9	4
0	912	0.9	4
0	913	0.9	4
0	914	0.9	4
0	915	0.9	4
0	916	0.9	4
0	917	0.9	4
0	918	0.9	4
0	919	0.9	4
0	920	0.9	4
0	971	0.95	4
0	972	0.95	4
0	973	0.95	4
0	974	0.95	4
0	975	0.95	4
0	1016	1	4
0	1017	1	4
0	1018	1	4
0	1019	1	4
0	1020	1	4
0	1021	1	4
0	1022	1	4
0	1023	1	4
0	1024	1	4
0	1025	1	4
0	1076	1.05	4
0	1077	1.05	4
0	1078	1.05	4
0	1079	1.05	4
0	1080	1.05	4
0	1126	1.1	4
0	1127	1.1	4
0	1128	1.1	4
0	1129	1.1	4
0	1130	1.1	4
0	1131	1.1	4
0	1132	1.1	4
0	1133	1.1	4
0	1134	1.1	4
0	1135	1.1	4
0	1402	1.15	4
0	1403	1.15	4
0	1404	1.15	4
0	1405	1.15	4
0	1406	1.15	4
0	1678	1.2	4
0	1679	1.2	4
0	1680	1.2	4
0	1681	1.2	4
0	1682	1.2	4
0	1683	1.2	4
0	1684	1.2	4
0	1685	1.2	4
0	1686	1.2	4
0	1687	1.2	4
0	1738	1.25	4
0	1739	1.25	4
0	1740	1.25	4
0	1741	1.25	4
0	1742	1.25	4
0	1783	1.3	4
0	1784	1.3	4
0	1785	1.3	4
0	1786	1.3	4
0	1787	1.3	4
0	1788	1.3	4
0	1789	1.3	4
0	1790	1.3	4
0	1791	1.3	4
0	1792	1.3	4
0	1843	1.35	4
0	1844	1.35	4
0	1845	1.35	4
0	1846	1.35	4
0	1847	1.35	4
0	1888	1.4	4
0	1889	1.4	4
0	1890	1.4	4
0	1891	1.4	4
0	1892	1.4	4
0	1893	1.4	4
0	1894	1.4	4
0	1895	1.4	4
0	1896	1.4	4
0	1897	1.4	4
0	1948	1.45	4
0	1949	1.45	4
0	1950	1.45	4
0	1951	1.45	4
0	1952	1.45	4
0	1993	1.5	4
0	1994	1.5	4
0	1995	1.5	4
0	1996	1.5	4
0	1997	1.5	4
0	1998	1.5	4
0	1999	1.5	4
0	2000	1.5	4
0	2001	1.5	4
0	2002	1.5	4
0	2053	1.55	4
0	2054	1.55	4
0	2055	1.55	4
0	2056	1.55	4
0	2057	1.55	4
0	2098	1.6	4
0	2099	1.6	4
0	2100	1.6	4
0	2101	1.6	4
0	2102	1.6	4
0	2103	1.6	4
0	2104	1.6	4
0	2105	1.6	4
0	2106	1.6	4
0	2107	1.6	4
0	2158	1.65	4
0	2159	1.65	4
0	2160	1.65	4
0	2161	1.65	4
0	2162	1.65	4
0	2430	1.7	4
0	2431	1.7	4
0	2432	1.7	4
0	2433	1.7	4
0	2434	1.7	4
0	2435	1.7	4
0	2436	1.7	4
0	2437	1.7	4
0	2438	1.7	4
0	2439	1.7	4
0	2694	1.75	4
0	2695	1.75	4
0	2696	1.75	4
0	2697	1.75	4
0	2698	1.75	4
0	2739	1.8	4
0	2740	1.8	4
0	2741	1.8	4
0	2742	1.8	4
0	2743	1.8	4
0	2744	1.8	4
0	2745	1.8	4
0	2746	1.8	4
0	2747	1.8	4
0	2748	1.8	4
0	2822	1.85	4
0	2823	1.85	4
0	2824	1.85	4
0	2825	1.85	4
0	2826	1.85	4
0	2867	1.9	4
0	2868	1.9	4
0	2869	1.9	4
0	2870	1.9	4
0	2871	1.9	4
0	2872	1.9	4
0	2873	1.9	4
0	2874	1.9	4
0	2875	1.9	4
0	2876	1.9	4
0	2927	1.95	4
0	2928	1.95	4
0	2929	1.95	4
0	2930	1.95	4
0	2931	1.95	4
0	2972	2	4
0	2973	2	4
0	2974	2	4
0	2975	2	4
0	2976	2	4
0	2977	2	4
0	2978	2	4
0	2979	2	4
0	2980	2	4
0	2981	2	4
0	3032	2.05	4
0	3033	2.05	4
0	3034	2.05	4
0	3035	2.05	4
0	3036	2.05	4
0	3082	2.1	4
0	3083	2.1	4
0	3084	2.1	4
0	3085	2.1	4
0	3086	2.1	4
0	3087	2.1	4
0	3088	2.1	4
0	3089	2.1	4
0	3090	2.1	4
0	3091	2.1	4
0	3147	2.15	4
0	3148	2.15	4
0	3149	2.15	4
0	3150	2.15	4
0	3151	2.15	4
0	3192	2.2	4
0	3193	2.2	4
0	3194	2.2	4
0	3195	2.2	4
0	3196	2.2	4
0	3197	2.2	4
0	3198	2.2	4
0	3199	2.2	4
0	3200	2.2	4
0	3201	2.2	4
0	3461	2.25	4
0	3462	2.25	4
0	3463	2.25	4
0	3464	2.25	4
0	3465	2.25	4
0	3680	2.3	4
0	3681	2.3	4
0	3682	2.3	4
0	3683	2.3	4
0	3684	2.3	4
0	3685	2.3	4
0	3686	2.3	4
0	3687	2.3	4
0	3688	2.3	4
0	3689	2.3	4
0	3740	2.35	4
0	3741	2.35	4
0	3742	2.35	4
0	3743	2.35	4
0	3744	2.35	4
0	3785	2.4	4
0	3786	2.4	4
0	3787	2.4	4
0	3788	2.4	4
0	3789	2.4	4
0	3790	2.4	4
0	3791	2.4	4
0	3792	2.4	4
0	3793	2.4	4
0	3794	2.4	4
0	3845	2.45	4
0	3846	2.45	4
0	3847	2.45	4
0	3848	2.45	4
0	3849	2.45	4
0	3890	2.5	4
0	3891	2.5	4
0	3892	2.5	4
0	3893	2.5	4
0	3894	2.5	4
0	3895	2.5	4
0	3896	2.5	4
0	3897	2.5	4
0	3898	2.5	4
0	3899	2.5	4
0	3950	2.55	4
0	3951	2.55	4
0	3952	2.55	4
0	3953	2.55	4
0	3954	2.55	4
0	3995	2.6	4
0	3996	2.6	4
0	3997	2.6	4
0	3998	2.6	4
0	3999	2.6	4
0	4000	2.6	4
0	4001	2.6	4
0	4002	2.6	4
0	4003	2.6	4
0	4004	2.6	4
0	4055	2.65	4
0	4056	2.65	4
0	4057	2.65	4
0	4058	2.65	4
0	4059	2.65	4
0	4100	2.7	4
0	4101	2.7	4
0	4102	2.7	4
0	4103	2.7	4
0	4104	2.7	4
0	4105	2.7	4
0	4106	2.7	4
0	4107	2.7	4
0	4108	2.7	4
0	4109	2.7	4
0	4160	2.75	4
0	4161	2.75	4
0	4162	2.75	4
0	4163	2.75	4
0	4164	2.75	4
0	4405	2.8	4
0	4406	2.8	4
0	4407	2.8	4
0	4408	2.8	4
0	4409	2.8	4
0	4410	2.8	4
0	4411	2.8	4
0	4412	2.8	4
0	4413	2.8	4
0	4414	2.8	4
0	4591	2.85	4
0	4592	2.85	4
0	4593	2.85	4
0	4594	2.85	4
0	4595	2.85	4
0	4636	2.9	4
0	4637	2.9	4
0	4638	2.9	4
0	4639	2.9	4
0	4640	2.9	4
0	4641	2.9	4
0	4642	2.9	4
0	4643	2.9	4
0	4644	2.9	4
0	4645	2.9	4
0	4719	2.95	4
0	4720	2.95	4
0	4721	2.95	4
0	4722	2.95	4
0	4723	2.95	4
0	4764	3	4
0	4765	3	4
0	4766	3	4
0	4767	3	4
0	4768	3	4
0	4769	3	4
0	4770	3	4
0	4771	3	4
0	4772	3	4
0	4773	3	4
0	4824	3.05	4
0	4825	3.05	4
0	4826	3.05	4
0	4827	3.05	4
0	4828	3.05	4
0	4874	3.1	4
0	4875	3.1	4
0	4876	3.1	4
0	4877	3.1	4
0	4878	3.1	4
0	4879	3.1	4
0	4880	3.1	4
0	4881	3.1	4
0	4882	3.1	4
0	4883	3.1	4
0	4939	3.15	4
0	4940	3.15	4
0	4941	3.15	4
0	4942	3.15	4
0	4943	3.15	4
0	4984	3.2	4
0	4985	3.2	4
0	4986	3.2	4
0	4987	3.2	4
0	4988	3.2	4
0	4989	3.2	4
0	4990	3.2	4
0	4991	3.2	4
0	4992	3.2	4
0	4993	3.2	4
0	5044	3.25	4
0	5045	3.25	4
0	5046	3.25	4
0	5047	3.25	4
0	5048	3.25	4
0	5089	3.3	4
0	5090	3.3	4
0	5091	3.3	4
0	5092	3.3	4
0	5093	3.3	4
0	5094	3.3	4
0	5095	3.3	4
0	5096	3.3	4
0	5097	3.3	4
0	5098	3.3	4
0	5378	3.35	4
0	5379	3.35	4
0	5380	3.35	4
0	5381	3.35	4
0	5382	3.35	4
0	5510	3.4	4
0	5511	3.4	4
0	5512	3.4	4
0	5513	3.4	4
0	5514	3.4	4
0	5515	3.4	4
0	5516	3.4	4
0	5517	3.4	4
0	5518	3.4	4
0	5519	3.4	4
0	5587	3.45	4
0	5588	3.45	4
0	5589	3.45	4
0	5590	3.45	4
0	5591	3.45	4
0	5678	3.5	4
0	5679	3.5	4
0	5680	3.5	4
0	5681	3.5	4
0	5682	3.5	4
0	5683	3.5	4
0	5684	3.5	4
0	5685	3.5	4
0	5686	3.5	4
0	5687	3.5	4
0	5738	3.55	4
0	5739	3.55	4
0	5740	3.55	4
0	5741	3.55	4
0	5742	3.55	4
0	5806	3.6	4
0	5807	3.6	4
0	5808	3.6	4
0	5809	3.6	4
0	5810	3.6	4
0	5811	3.6	4
0	5812	3.6	4
0	5813	3.6	4
0	5814	3.6	4
0	5815	3.6	4
0	5866	3.65	4
0	5867	3.65	4
0	5868	3.65	4
0	5869	3.65	4
0	5870	3.65	4
0	5911	3.7	4
0	5912	3.7	4
0	5913	3.7	4
0	5914	3.7	4
0	5915	3.7	4
0	5916	3.7	4
0	5917	3.7	4
0	5918	3.7	4
0	5919	3.7	4
0	5920	3.7	4
0	5971	3.75	4
0	5972	3.75	4
0	5973	3.75	4
0	5974	3.75	4
0	5975	3.75	4
0	6016	3.8	4
0	6017	3.8	4
0	6018	3.8	4
0	6019	3.8	4
0	6020	3.8	4
0	6021	3.8	4
0	6022	3.8	4
0	6023	3.8	4
0	6024	3.8	4
0	6025	3.8	4
0	6099	3.85	4
0	6100	3.85	4
0	6101	3.85	4
0	6102	3.85	4
0	6103	3.85	4
0	6373	3.9	4
0	6374	3.9	4
0	6375	3.9	4
0	6376	3.9	4
0	6377	3.9	4
0	6378	3.9	4
0	6379	3.9	4
0	6380	3.9	4
0	6381	3.9	4
0	6382	3.9	4
0	6526	3.95	4
0	6527	3.95	4
0	6528	3.95	4
0	6529	3.95	4
0	6530	3.95	4
0	6611	4	4
0	6612	4	4
0	6613	4	4
0	6614	4	4
0	6615	4	4
0	6616	4	4
0	6617	4	4
0	6618	4	4
0	6619	4	4
0	6620	4	4
0	6711	4.05	4
0	6712	4.05	4
0	6713	4.05	4
0	6714	4.05	4
0	6715	4.05	4
0	6761	4.1	4
0	6762	4.1	4
0	6763	4.1	4
0	6764	4.1	4
0	6765	4.1	4
0	6766	4.1	4
0	6767	4.1	4
0	6768	4.1	4
0	6769	4.1	4
0	6770	4.1	4
0	6831	4.15	4
0	6832	4.15	4
0	6833	4.15	4
0	6834	4.15	4
0	6835	4.15	4
0	6876	4.2	4
0	6877	4.2	4
0	6878	4.2	4
0	6879	4.2	4
0	6880	4.2	4
0	6881	4.2	4
0	6882	4.2	4
0	6883	4.2	4
0	6884	4.2	4
0	6885	4.2	4
0	6936	4.25	4
0	6937	4.25	4
0	6938	4.25	4
0	6939	4.25	4
0	6940	4.25	4
0	6981	4.3	4
0	6982	4.3	4
0	6983	4.3	4
0	6984	4.3	4
0	6985	4.3	4
0	6986	4.3	4
0	6987	4.3	4
0	6988	4.3	4
0	6989	4.3	4
0	6990	4.3	4
0	7041	4.35	4
0	7042	4.35	4
0	7043	4.35	4
0	7044	4.35	4
0	7045	4.35	4
0	7091	4.4	4
0	7092	4.4	4
0	7093	4.4	4
0	7094	4.4	4
0	7095	4.4	4
0	7096	4.4	4
0	7097	4.4	4
0	7098	4.4	4
0	7099	4.4	4
0	7100	4.4	4
0	7353	4.45	4
0	7354	4.45	4
0	7355	4.45	4
0	7356	4.45	4
0	7357	4.45	4
0	7482	4.5	4
0	7483	4.5	4
0	7484	4.5	4
0	7485	4.5	4
0	7486	4.5	4
0	7487	4.5	4
0	7488	4.5	4
0	7489	4.5	4
0	7490	4.5	4
0	7491	4.5	4
0	7542	4.55	4
0	7543	4.55	4
0	7544	4.55	4
0	7545	4.55	4
0	7546	4.55	4
0	7610	4.6	4
0	7611	4.6	4
0	7612	4.6	4
0	7613	4.6	4
0	7614	4.6	4
0	7615	4.6	4
0	7616	4.6	4
0	7617	4.6	4
0	7618	4.6	4
0	7619	4.6	4
0	7670	4.65	4
0	7671	4.65	4
0	7672	4.65	4
0	7673	4.65	4
0	7674	4.65	4
0	7715	4.7	4
0	7716	4.7	4
0	7717	4.7	4
0	7718	4.7	4
0	7719	4.7	4
0	7720	4.7	4
0	7721	4.7	4
0	7722	4.7	4
0	7723	4.7	4
0	7724	4.7	4
0	7775	4.75	4
0	7776	4.75	4
0	7777	4.75	4
0	7778	4.75	4
0	7779	4.75	4
0	7820	4.8	4
0	7821	4.8	4
0	7822	4.8	4
0	7823	4.8	4
0	7824	4.8	4
0	7825	4.8	4
0	7826	4.8	4
0	7827	4.8	4
0	7828	4.8	4
0	7829	4.8	4
0	7880	4.85	4
0	7881	4.85	4
0	7882	4.85	4
0	7883	4.85	4
0	7884	4.85	4
0	7925	4.9	4
0	7926	4.9	4
0	7927	4.9	4
0	7928	4.9	4
0	7929	4.9	4
0	7930	4.9	4
0	7931	4.9	4
0	7932	4.9	4
0	7933	4.9	4
0	7934	4.9	4
0	7985	4.95	4
0	7986	4.95	4
0	7987	4.95	4
0	7988	4.95	4
0	7989	4.95	4
0	8245	5	4
0	8246	5	4
0	8247	5	4
0	8248	5	4
0	8249	5	4
0	8250	5	4
0	8251	5	4
0	8252	5	4
0	8253	5	4
0	8254	5	4
0	8371	5.05	4
0	8372	5.05	4
0	8373	5.05	4
0	8374	5.05	4
0	8375	5.05	4
0	8421	5.1	4
0	8422	5.1	4
0	8423	5.1	4
0	8424	5.1	4
0	8425	5.1	4
0	8426	5.1	4
0	8427	5.1	4
0	8428	5.1	4
0	8429	5.1	4
0	8430	5.1	4
0	8532	5.15	4
0	8533	5.15	4
0	8534	5.15	4
0	8535	5.15	4
0	8536	5.15	4
0	8577	5.2	4
0	8578	5.2	4
0	8579	5.2	4
0	8580	5.2	4
0	8581	5.2	4
0	8582	5.2	4
0	8583	5.2	4
0	8584	5.2	4
0	8585	5.2	4
0	8586	5.2	4
0	8637	5.25	4
0	8638	5.25	4
0	8639	5.25	4
0	8640	5.25	4
0	8641	5.25	4
0	8682	5.3	4
0	8683	5.3	4
0	8684	5.3	4
0	8685	5.3	4
0	8686	5.3	4
0	8687	5.3	4
0	8688	5.3	4
0	8689	5.3	4
0	8690	5.3	4
0	8691	5.3	4
0	8742	5.35	4
0	8743	5.35	4
0	8744	5.35	4
0	8745	5.35	4
0	8746	5.35	4
0	8787	5.4	4
0	8788	5.4	4
0	8789	5.4	4
0	8790	5.4	4
0	8791	5.4	4
0	8792	5.4	4
0	8793	5.4	4
0	8794	5.4	4
0	8795	5.4	4
0	8796	5.4	4
0	8847	5.45	4
0	8848	5.45	4
0	8849	5.45	4
0	8850	5.45	4
0	8851	5.45	4
0	8897	5.5	4
0	8898	5.5	4
0	8899	5.5	4
0	8900	5.5	4
0	8901	5.5	4
0	8902	5.5	4
0	8903	5.5	4
0	8904	5.5	4
0	8905	5.5	4
0	8906	5.5	4
0	9129	5.55	4
0	9130	5.55	4
0	9131	5.55	4
0	9132	5.55	4
0	9133	5.55	4
0	9270	5.6	4
0	9271	5.6	4
0	9272	5.6	4
0	9273	5.6	4
0	9274	5.6	4
0	9275	5.6	4
0	9276	5.6	4
0	9277	5.6	4
0	9278	5.6	4
0	9279	5.6	4
0	9353	5.65	4
0	9354	5.65	4
0	9355	5.65	4
0	9356	5.65	4
0	9357	5.65	4
0	9421	5.7	4
0	9422	5.7	4
0	9423	5.7	4
0	9424	5.7	4
0	9425	5.7	4
0	9426	5.7	4
0	9427	5.7	4
0	9428	5.7	4
0	9429	5.7	4
0	9430	5.7	4
0	9498	5.75	4
0	9499	5.75	4
0	9500	5.75	4
0	9501	5.75	4
0	9502	5.75	4
0	9560	5.8	4
0	9561	5.8	4
0	9562	5.8	4
0	9563	5.8	4
0	9564	5.8	4
0	9565	5.8	4
0	9566	5.8	4
0	9567	5.8	4
0	9568	5.8	4
0	9569	5.8	4
0	9620	5.85	4
0	9621	5.85	4
0	9622	5.85	4
0	9623	5.85	4
0	9624	5.85	4
0	9665	5.9	4
0	9666	5.9	4
0	9667	5.9	4
0	9668	5.9	4
0	9669	5.9	4
0	9670	5.9	4
0	9671	5.9	4
0	9672	5.9	4
0	9673	5.9	4
0	9674	5.9	4
0	9725	5.95	4
0	9726	5.95	4
0	9727	5.95	4
0	9728	5.95	4
0	9729	5.95	4
0	9775	6	4
0	9776	6	4
0	9777	6	4
0	9778	6	4
0	9779	6	4
0	9780	6	4
0	9781	6	4
0	9782	6	4
0	9783	6	4
0	9784	6	4
0	9835	6.05	4
0	9836	6.05	4
0	9837	6.05	4
0	9838	6.05	4
0	9839	6.05	4
0	10056	6.1	4
0	10057	6.1	4
0	10058	6.1	4
0	10059	6.1	4
0	10060	6.1	4
0	10061	6.1	4
0	10062	6.1	4
0	10063	6.1	4
0	10064	6.1	4
0	10065	6.1	4
0	10226	6.15	4
0	10227	6.15	4
0	10228	6.15	4
0	10229	6.15	4
0	10230	6.15	4
0	10294	6.2	4
0	10295	6.2	4
0	10296	6.2	4
0	10297	6.2	4
0	10298	6.2	4
0	10299	6.2	4
0	10300	6.2	4
0	10301	6.2	4
0	10302	6.2	4
0	10303	6.2	4
0	10377	6.25	4
0	10378	6.25	4
0	10379	6.25	4
0	10380	6.25	4
0	10381	6.25	4
0	10445	6.3	4
0	10446	6.3	4
0	10447	6.3	4
0	10448	6.3	4
0	10449	6.3	4
0	10450	6.3	4
0	10451	6.3	4
0	10452	6.3	4
0	10453	6.3	4
0	10454	6.3	4
0	10528	6.35	4
0	10529	6.35	4
0	10530	6.35	4
0	10531	6.35	4
0	10532	6.35	4
0	10573	6.4	4
0	10574	6.4	4
0	10575	6.4	4
0	10576	6.4	4
0	10577	6.4	4
0	10578	6.4	4
0	10579	6.4	4
0	10580	6.4	4
0	10581	6.4	4
0	10582	6.4	4
0	10633	6.45	4
0	10634	6.45	4
0	10635	6.45	4
0	10636	6.45	4
0	10637	6.45	4
0	10683	6.5	4
0	10684	6.5	4
0	10685	6.5	4
0	10686	6.5	4
0	10687	6.5	4
0	10688	6.5	4
0	10689	6.5	4
0	10690	6.5	4
0	10691	6.5	4
0	10692	6.5	4
0	10743	6.55	4
0	10744	6.55	4
0	10745	6.55	4
0	10746	6.55	4
0	10747	6.55	4
0	10788	6.6	4
0	10789	6.6	4
0	10790	6.6	4
0	10791	6.6	4
0	10792	6.6	4
0	10793	6.6	4
0	10794	6.6	4
0	10795	6.6	4
0	10796	6.6	4
0	10797	6.6	4
0	11010	6.65	4
0	11011	6.65	4
0	11012	6.65	4
0	11013	6.65	4
0	11014	6.65	4
0	11315	6.7	4
0	11316	6.7	4
0	11317	6.7	4
0	11318	6.7	4
0	11319	6.7	4
0	11320	6.7	4
0	11321	6.7	4
0	11322	6.7	4
0	11323	6.7	4
0	11324	6.7	4
0	11658	6.75	4
0	11659	6.75	4
0	11660	6.75	4
0	11661	6.75	4
0	11662	6.75	4
0	11894	6.8	4
0	11895	6.8	4
0	11896	6.8	4
0	11897	6.8	4
0	11898	6.8	4
0	11899	6.8	4
0	11900	6.8	4
0	11901	6.8	4
0	11902	6.8	4
0	11903	6.8	4
0	11971	6.85	4
0	11972	6.85	4
0	11973	6.85	4
0	11974	6.85	4
0	11975	6.85	4
0	12016	6.9	4
0	12017	6.9	4
0	12018	6.9	4
0	12019	6.9	4
0	12020	6.9	4
0	12021	6.9	4
0	12022	6.9	4
0	12023	6.9	4
0	12024	6.9	4
0	12025	6.9	4
0	12099	6.95	4
0	12100	6.95	4
0	12101	6.95	4
0	12102	6.95	4
0	12103	6.95	4
0	12149	7	4
0	12150	7	4
0	12151	7	4
0	12152	7	4
0	12153	7	4
0	12154	7	4
0	12155	7	4
0	12156	7	4
0	12157	7	4
0	12158	7	4
0	12209	7.05	4
0	12210	7.05	4
0	12211	7.05	4
0	12212	7.05	4
0	12213	7.05	4
0	12259	7.1	4
0	12260	7.1	4
0	12261	7.1	4
0	12262	7.1	4
0	12263	7.1	4
0	12264	7.1	4
0	12265	7.1	4
0	12266	7.1	4
0	12267	7.1	4
0	12268	7.1	4
0	12348	7.15	4
0	12349	7.15	4
0	12350	7.15	4
0	12351	7.15	4
0	12352	7.15	4
0	12571	7.2	4
0	12572	7.2	4
0	12573	7.2	4
0	12574	7.2	4
0	12575	7.2	4
0	12576	7.2	4
0	12577	7.2	4
0	12578	7.2	4
0	12579	7.2	4
0	12580	7.2	4
0	12772	7.25	4
0	12773	7.25	4
0	12774	7.25	4
0	12775	7.25	4
0	12776	7.25	4
0	12863	7.3	4
0	12864	7.3	4
0	12865	7.3	4
0	12866	7.3	4
0	12867	7.3	4
0	12868	7.3	4
0	12869	7.3	4
0	12870	7.3	4
0	12871	7.3	4
0	12872	7.3	4
0	12946	7.35	4
0	12947	7.35	4
0	12948	7.35	4
0	12949	7.35	4
0	12950	7.35	4
0	12996	7.4	4
0	12997	7.4	4
0	12998	7.4	4
0	12999	7.4	4
0	13000	7.4	4
0	13001	7.4	4
0	13002	7.4	4
0	13003	7.4	4
0	13004	7.4	4
0	13005	7.4	4
0	13056	7.45	4
0	13057	7.45	4
0	13058	7.45	4
0	13059	7.45	4
0	13060	7.45	4
0	13124	7.5	4
0	13125	7.5	4
0	13126	7.5	4
0	13127	7.5	4
0	13128	7.5	4
0	13129	7.5	4
0	13130	7.5	4
0	13131	7.5	4
0	13132	7.5	4
0	13133	7.5	4
0	13184	7.55	4
0	13185	7.55	4
0	13186	7.55	4
0	13187	7.55	4
0	13188	7.55	4
0	13229	7.6	4
0	13230	7.6	4
0	13231	7.6	4
0	13232	7.6	4
0	13233	7.6	4
0	13234	7.6	4
0	13235	7.6	4
0	13236	7.6	4
0	13237	7.6	4
0	13238	7.6	4
0	13289	7.65	4
0	13290	7.65	4
0	13291	7.65	4
0	13292	7.65	4
0	13293	7.65	4
0	13357	7.7	4
0	13358	7.7	4
0	13359	7.7	4
0	13360	7.7	4
0	13361	7.7	4
0	13362	7.7	4
0	13363	7.7	4
0	13364	7.7	4
0	13365	7.7	4
0	13366	7.7	4
0	13567	7.75	4
0	13568	7.75	4
0	13569	7.75	4
0	13570	7.75	4
0	13571	7.75	4
0	13669	7.8	4
0	13670	7.8	4
0	13671	7.8	4
0	13672	7.8	4
0	13673	7.8	4
0	13674	7.8	4
0	13675	7.8	4
0	13676	7.8	4
0	13677	7.8	4
0	13678	7.8	4
0	13775	7.85	4
0	13776	7.85	4
0	13777	7.85	4
0	13778	7.85	4
0	13779	7.85	4
0	13843	7.9	4
0	13844	7.9	4
0	13845	7.9	4
0	13846	7.9	4
0	13847	7.9	4
0	13848	7.9	4
0	13849	7.9	4
0	13850	7.9	4
0	13851	7.9	4
0	13852	7.9	4
0	13926	7.95	4
0	13927	7.95	4
0	13928	7.95	4
0	13929	7.95	4
0	13930	7.95	4
0	13971	8	4
0	13972	8	4
0	13973	8	4
0	13974	8	4
0	13975	8	4
0	13976	8	4
0	13977	8	4
0	13978	8	4
0	13979	8	4
0	13980	8	4
0	14054	8.05	4
0	14055	8.05	4
0	14056	8.05	4
0	14057	8.05	4
0	14058	8.05	4
0	14127	8.1	4
0	14128	8.1	4
0	14129	8.1	4
0	14130	8.1	4
0	14131	8.1	4
0	14132	8.1	4
0	14133	8.1	4
0	14134	8.1	4
0	14135	8.1	4
0	14136	8.1	4
0	14193	8.15	4
0	14194	8.15	4
0	14195	8.15	4
0	14196	8.15	4
0	14197	8.15	4
0	14284	8.2	4
0	14285	8.2	4
0	14286	8.2	4
0	14287	8.2	4
0	14288	8.2	4
0	14289	8.2	4
0	14290	8.2	4
0	14291	8.2	4
0	14292	8.2	4
0	14293	8.2	4
0	14344	8.25	4
0	14345	8.25	4
0	14346	8.25	4
0	14347	8.25	4
0	14348	8.25	4
0	14539	8.3	4
0	14540	8.3	4
0	14541	8.3	4
0	14542	8.3	4
0	14543	8.3	4
0	14544	8.3	4
0	14545	8.3	4
0	14546	8.3	4
0	14547	8.3	4
0	14548	8.3	4
0	14763	8.35	4
0	14764	8.35	4
0	14765	8.35	4
0	14766	8.35	4
0	14767	8.35	4
0	14854	8.4	4
0	14855	8.4	4
0	14856	8.4	4
0	14857	8.4	4
0	14858	8.4	4
0	14859	8.4	4
0	14860	8.4	4
0	14861	8.4	4
0	14862	8.4	4
0	14863	8.4	4
0	14954	8.45	4
0	14955	8.45	4
0	14956	8.45	4
0	14957	8.45	4
0	14958	8.45	4
0	14999	8.5	4
0	15000	8.5	4
0	15001	8.5	4
0	15002	8.5	4
0	15003	8.5	4
0	15004	8.5	4
0	15005	8.5	4
0	15006	8.5	4
0	15007	8.5	4
0	15008	8.5	4
0	15059	8.55	4
0	15060	8.55	4
0	15061	8.55	4
0	15062	8.55	4
0	15063	8.55	4
0	15127	8.6	4
0	15128	8.6	4
0	15129	8.6	4
0	15130	8.6	4
0	15131	8.6	4
0	15132	8.6	4
0	15133	8.6	4
0	15134	8.6	4
0	15135	8.6	4
0	15136	8.6	4
0	15204	8.65	4
0	15205	8.65	4
0	15206	8.65	4
0	15207	8.65	4
0	15208	8.65	4
0	15249	8.7	4
0	15250	8.7	4
0	15251	8.7	4
0	15252	8.7	4
0	15253	8.7	4
0	15254	8.7	4
0	15255	8.7	4
0	15256	8.7	4
0	15257	8.7	4
0	15258	8.7	4
0	15355	8.75	4
0	15356	8.75	4
0	15357	8.75	4
0	15358	8.75	4
0	15359	8.75	4
0	15405	8.8	4
0	15406	8.8	4
0	15407	8.8	4
0	15408	8.8	4
0	15409	8.8	4
0	15410	8.8	4
0	15411	8.8	4
0	15412	8.8	4
0	15413	8.8	4
0	15414	8.8	4
0	15615	8.85	4
0	15616	8.85	4
0	15617	8.85	4
0	15618	8.85	4
0	15619	8.85	4
0	15740	8.9	4
0	15741	8.9	4
0	15742	8.9	4
0	15743	8.9	4
0	15744	8.9	4
0	15745	8.9	4
0	15746	8.9	4
0	15747	8.9	4
0	15748	8.9	4
0	15749	8.9	4
0	15863	8.95	4
0	15864	8.95	4
0	15865	8.95	4
0	15866	8.95	4
0	15867	8.95	4
0	15936	9	4
0	15937	9	4
0	15938	9	4
0	15939	9	4
0	15940	9	4
0	15941	9	4
0	15942	9	4
0	15943	9	4
0	15944	9	4
0	15945	9	4
0	15996	9.05	4
0	15997	9.05	4
0	15998	9.05	4
0	15999	9.05	4
0	16000	9.05	4
0	16046	9.1	4
0	16047	9.1	4
0	16048	9.1	4
0	16049	9.1	4
0	16050	9.1	4
0	16051	9.1	4
0	16052	9.1	4
0	16053	9.1	4
0	16054	9.1	4
0	16055	9.1	4
0	16135	9.15	4
0	16136	9.15	4
0	16137	9.15	4
0	16138	9.15	4
0	16139	9.15	4
0	16180	9.2	4
0	16181	9.2	4
0	16182	9.2	4
0	16183	9.2	4
0	16184	9.2	4
0	16185	9.2	4
0	16186	9.2	4
0	16187	9.2	4
0	16188	9.2	4
0	16189	9.2	4
0	16240	9.25	4
0	16241	9.25	4
0	16242	9.25	4
0	16243	9.25	4
0	16244	9.25	4
0	16331	9.3	4
0	16332	9.3	4
0	16333	9.3	4
0	16334	9.3	4
0	16335	9.3	4
0	16336	9.3	4
0	16337	9.3	4
0	16338	9.3	4
0	16339	9.3	4
0	16340	9.3	4
0	16414	9.35	4
0	16415	9.35	4
0	16416	9.35	4
0	16417	9.35	4
0	16418	9.35	4
0	16609	9.4	4
0	16610	9.4	4
0	16611	9.4	4
0	16612	9.4	4
0	16613	9.4	4
0	16614	9.4	4
0	16615	9.4	4
0	16616	9.4	4
0	16617	9.4	4
0	16618	9.4	4
0	16833	9.45	4
0	16834	9.45	4
0	16835	9.45	4
0	16836	9.45	4
0	16837	9.45	4
0	16941	9.5	4
0	16942	9.5	4
0	16943	9.5	4
0	16944	9.5	4
0	16945	9.5	4
0	16946	9.5	4
0	16947	9.5	4
0	16948	9.5	4
0	16949	9.5	4
0	16950	9.5	4
0	17024	9.55	4
0	17025	9.55	4
0	17026	9.55	4
0	17027	9.55	4
0	17028	9.55	4
0	17069	9.6	4
0	17070	9.6	4
0	17071	9.6	4
0	17072	9.6	4
0	17073	9.6	4
0	17074	9.6	4
0	17075	9.6	4
0	17076	9.6	4
0	17077	9.6	4
0	17078	9.6	4
0	17129	9.65	4
0	17130	9.65	4
0	17131	9.65	4
0	17132	9.65	4
0	17133	9.65	4
0	17197	9.7	4
0	17198	9.7	4
0	17199	9.7	4
0	17200	9.7	4
0	17201	9.7	4
0	17202	9.7	4
0	17203	9.7	4
0	17204	9.7	4
0	17205	9.7	4
0	17206	9.7	4
0	17257	9.75	4
0	17258	9.75	4
0	17259	9.75	4
0	17260	9.75	4
0	17261	9.75	4
0	17302	9.8	4
0	17303	9.8	4
0	17304	9.8	4
0	17305	9.8	4
0	17306	9.8	4
0	17307	9.8	4
0	17308	9.8	4
0	17309	9.8	4
0	17310	9.8	4
0	17311	9.8	4
0	17402	9.85	4
0	17403	9.85	4
0	17404	9.85	4
0	17405	9.85	4
0	17406	9.85	4
0	17452	9.9	4
0	17453	9.9	4
0	17454	9.9	4
0	17455	9.9	4
0	17456	9.9	4
0	17457	9.9	4
0	17458	9.9	4
0	17459	9.9	4
0	17460	9.9	4
0	17461	9.9	4
0	17644	9.95	4
0	17645	9.95	4
0	17646	9.95	4
0	17647	9.95	4
0	17648	9.95	4
0	17769	10	4
0	17770	10	4
0	17771	10	4
0	17772	10	4
0	17773	10	4
0	17774	10	4
0	17775	10	4
0	17776	10	4
0	17777	10	4
0	17778	10	4
0	17875	10.05	4
0	17876	10.05	4
0	17877	10.05	4
0	17878	10.05	4
0	17879	10.05	4
0	17925	10.1	4
0	17926	10.1	4
0	17927	10.1	4
0	17928	10.1	4
0	17929	10.1	4
0	17930	10.1	4
0	17931	10.1	4
0	17932	10.1	4
0	17933	10.1	4
0	17934	10.1	4
0	17991	10.15	4
0	17992	10.15	4
0	17993	10.15	4
0	17994	10.15	4
0	17995	10.15	4
0	18036	10.2	4
0	18037	10.2	4
0	18038	10.2	4
0	18039	10.2	4
0	18040	10.2	4
0	18041	10.2	4
0	18042	10.2	4
0	18043	10.2	4
0	18044	10.2	4
0	18045	10.2	4
0	18136	10.25	4
0	18137	10.25	4
0	18138	10.25	4
0	18139	10.25	4
0	18140	10.25	4
0	18181	10.3	4
0	18182	10.3	4
0	18183	10.3	4
0	18184	10.3	4
0	18185	10.3	4
0	18186	10.3	4
0	18187	10.3	4
0	18188	10.3	4
0	18189	10.3	4
0	18190	10.3	4
0	18241	10.35	4
0	18242	10.35	4
0	18243	10.35	4
0	18244	10.35	4
0	18245	10.35	4
0	18355	10.4	4
0	18356	10.4	4
0	18357	10.4	4
0	18358	10.4	4
0	18359	10.4	4
0	18360	10.4	4
0	18361	10.4	4
0	18362	10.4	4
0	18363	10.4	4
0	18364	10.4	4
0	18415	10.45	4
0	18416	10.45	4
0	18417	10.45	4
0	18418	10.45	4
0	18419	10.45	4
0	18587	10.5	4
0	18588	10.5	4
0	18589	10.5	4
0	18590	10.5	4
0	18591	10.5	4
0	18592	10.5	4
0	18593	10.5	4
0	18594	10.5	4
0	18595	10.5	4
0	18596	10.5	4
0	18811	10.55	4
0	18812	10.55	4
0	18813	10.55	4
0	18814	10.55	4
0	18815	10.55	4
0	18902	10.6	4
0	18903	10.6	4
0	18904	10.6	4
0	18905	10.6	4
0	18906	10.6	4
0	18907	10.6	4
0	18908	10.6	4
0	18909	10.6	4
0	18910	10.6	4
0	18911	10.6	4
0	18962	10.65	4
0	18963	10.65	4
0	18964	10.65	4
0	18965	10.65	4
0	18966	10.65	4
0	19007	10.7	4
0	19008	10.7	4
0	19009	10.7	4
0	19010	10.7	4
0	19011	10.7	4
0	19012	10.7	4
0	19013	10.7	4
0	19014	10.7	4
0	19015	10.7	4
0	19016	10.7	4
0	19067	10.75	4
0	19068	10.75	4
0	19069	10.75	4
0	19070	10.75	4
0	19071	10.75	4
0	19140	10.8	4
0	19141	10.8	4
0	19142	10.8	4
0	19143	10.8	4
0	19144	10.8	4
0	19145	10.8	4
0	19146	10.8	4
0	19147	10.8	4
0	19148	10.8	4
0	19149	10.8	4
0	19200	10.85	4
0	19201	10.85	4
0	19202	10.85	4
0	19203	10.85	4
0	19204	10.85	4
0	19245	10.9	4
0	19246	10.9	4
0	19247	10.9	4
0	19248	10.9	4
0	19249	10.9	4
0	19250	10.9	4
0	19251	10.9	4
0	19252	10.9	4
0	19253	10.9	4
0	19254	10.9	4
0	19351	10.95	4
0	19352	10.95	4
0	19353	10.95	4
0	19354	10.95	4
0	19355	10.95	4
0	19396	11	4
0	19397	11	4
0	19398	11	4
0	19399	11	4
0	19400	11	4
0	19401	11	4
0	19402	11	4
0	19403	11	4
0	19404	11	4
0	19405	11	4
0	19583	11.05	4
0	19584	11.05	4
0	19585	11.05	4
0	19586	11.05	4
0	19587	11.05	4
0	19736	11.1	4
0	19737	11.1	4
0	19738	11.1	4
0	19739	11.1	4
0	19740	11.1	4
0	19741	11.1	4
0	19742	11.1	4
0	19743	11.1	4
0	19744	11.1	4
0	19745	11.1	4
0	19871	11.15	4
0	19872	11.15	4
0	19873	11.15	4
0	19874	11.15	4
0	19875	11.15	4
0	19916	11.2	4
0	19917	11.2	4
0	19918	11.2	4
0	19919	11.2	4
0	19920	11.2	4
0	19921	11.2	4
0	19922	11.2	4
0	19923	11.2	4
0	19924	11.2	4
0	19925	11.2	4
0	19981	11.25	4
0	19982	11.25	4
0	19983	11.25	4
0	19984	11.25	4
0	19985	11.25	4
0	20049	11.3	4
0	20050	11.3	4
0	20051	11.3	4
0	20052	11.3	4
0	20053	11.3	4
0	20054	11.3	4
0	20055	11.3	4
0	20056	11.3	4
0	20057	11.3	4
0	20058	11.3	4
0	20132	11.35	4
0	20133	11.35	4
0	20134	11.35	4
0	20135	11.35	4
0	20136	11.35	4
0	20177	11.4	4
0	20178	11.4	4
0	20179	11.4	4
0	20180	11.4	4
0	20181	11.4	4
0	20182	11.4	4
0	20183	11.4	4
0	20184	11.4	4
0	20185	11.4	4
0	20186	11.4	4
0	20237	11.45	4
0	20238	11.45	4
0	20239	11.45	4
0	20240	11.45	4
0	20241	11.45	4
0	20328	11.5	4
0	20329	11.5	4
0	20330	11.5	4
0	20331	11.5	4
0	20332	11.5	4
0	20333	11.5	4
0	20334	11.5	4
0	20335	11.5	4
0	20336	11.5	4
0	20337	11.5	4
0	20388	11.55	4
0	20389	11.55	4
0	20390	11.55	4
0	20391	11.55	4
0	20392	11.55	4
0	20560	11.6	4
0	20561	11.6	4
0	20562	11.6	4
0	20563	11.6	4
0	20564	11.6	4
0	20565	11.6	4
0	20566	11.6	4
0	20567	11.6	4
0	20568	11.6	4
0	20569	11.6	4
0	20784	11.65	4
0	20785	11.65	4
0	20786	11.65	4
0	20787	11.65	4
0	20788	11.65	4
0	20898	11.7	4
0	20899	11.7	4
0	20900	11.7	4
0	20901	11.7	4
0	20902	11.7	4
0	20903	11.7	4
0	20904	11.7	4
0	20905	11.7	4
0	20906	11.7	4
0	20907	11.7	4
0	20958	11.75	4
0	20959	11.75	4
0	20960	11.75	4
0	20961	11.75	4
0	20962	11.75	4
0	21003	11.8	4
0	21004	11.8	4
0	21005	11.8	4
0	21006	11.8	4
0	21007	11.8	4
0	21008	11.8	4
0	21009	11.8	4
0	21010	11.8	4
0	21011	11.8	4
0	21012	11.8	4
0	21068	11.85	4
0	21069	11.85	4
0	21070	11.85	4
0	21071	11.85	4
0	21072	11.85	4
0	21136	11.9	4
0	21137	11.9	4
0	21138	11.9	4
0	21139	11.9	4
0	21140	11.9	4
0	21141	11.9	4
0	21142	11.9	4
0	21143	11.9	4
0	21144	11.9	4
0	21145	11.9	4
0	21196	11.95	4
0	21197	11.95	4
0	21198	11.95	4
0	21199	11.95	4
0	21200	11.95	4
0	21269	12	4
0	21270	12	4
0	21271	12	4
0	21272	12	4
0	21273	12	4
0	21274	12	4
0	21275	12	4
0	21276	12	4
0	21277	12	4
0	21278	12	4
0	21375	12.05	4
0	21376	12.05	4
0	21377	12.05	4
0	21378	12.05	4
0	21379	12.05	4
0	21425	12.1	4
0	21426	12.1	4
0	21427	12.1	4
0	21428	12.1	4
0	21429	12.1	4
0	21430	12.1	4
0	21431	12.1	4
0	21432	12.1	4
0	21433	12.1	4
0	21434	12.1	4
0	21635	12.15	4
0	21636	12.15	4
0	21637	12.15	4
0	21638	12.15	4
0	21639	12.15	4
0	21844	12.2	4
0	21845	12.2	4
0	21846	12.2	4
0	21847	12.2	4
0	21848	12.2	4
0	21849	12.2	4
0	21850	12.2	4
0	21851	12.2	4
0	21852	12.2	4
0	21853	12.2	4
0	21950	12.25	4
0	21951	12.25	4
0	21952	12.25	4
0	21953	12.25	4
0	21954	12.25	4
0	21995	12.3	4
0	21996	12.3	4
0	21997	12.3	4
0	21998	12.3	4
0	21999	12.3	4
0	22000	12.3	4
0	22001	12.3	4
0	22002	12.3	4
0	22003	12.3	4
0	22004	12.3	4
0	22055	12.35	4
0	22056	12.35	4
0	22057	12.35	4
0	22058	12.35	4
0	22059	12.35	4
0	22100	12.4	4
0	22101	12.4	4
0	22102	12.4	4
0	22103	12.4	4
0	22104	12.4	4
0	22105	12.4	4
0	22106	12.4	4
0	22107	12.4	4
0	22108	12.4	4
0	22109	12.4	4
0	22183	12.45	4
0	22184	12.45	4
0	22185	12.45	4
0	22186	12.45	4
0	22187	12.45	4
0	22228	12.5	4
0	22229	12.5	4
0	22230	12.5	4
0	22231	12.5	4
0	22232	12.5	4
0	22233	12.5	4
0	22234	12.5	4
0	22235	12.5	4
0	22236	12.5	4
0	22237	12.5	4
0	22311	12.55	4
0	22312	12.55	4
0	22313	12.55	4
0	22314	12.55	4
0	22315	12.55	4
0	22402	12.6	4
0	22403	12.6	4
0	22404	12.6	4
0	22405	12.6	4
0	22406	12.6	4
0	22407	12.6	4
0	22408	12.6	4
0	22409	12.6	4
0	22410	12.6	4
0	22411	12.6	4
0	22462	12.65	4
0	22463	12.65	4
0	22464	12.65	4
0	22465	12.65	4
0	22466	12.65	4
0	22656	12.7	4
0	22657	12.7	4
0	22658	12.7	4
0	22659	12.7	4
0	22660	12.7	4
0	22661	12.7	4
0	22662	12.7	4
0	22663	12.7	4
0	22664	12.7	4
0	22665	12.7	4
0	22796	12.75	4
0	22797	12.75	4
0	22798	12.75	4
0	22799	12.75	4
0	22800	12.75	4
0	22887	12.8	4
0	22888	12.8	4
0	22889	12.8	4
0	22890	12.8	4
0	22891	12.8	4
0	22892	12.8	4
0	22893	12.8	4
0	22894	12.8	4
0	22895	12.8	4
0	22896	12.8	4
0	22952	12.85	4
0	22953	12.85	4
0	22954	12.85	4
0	22955	12.85	4
0	22956	12.85	4
0	22997	12.9	4
0	22998	12.9	4
0	22999	12.9	4
0	23000	12.9	4
0	23001	12.9	4
0	23002	12.9	4
0	23003	12.9	4
0	23004	12.9	4
0	23005	12.9	4
0	23006	12.9	4
0	23057	12.95	4
0	23058	12.95	4
0	23059	12.95	4
0	23060	12.95	4
0	23061	12.95	4
0	23125	13	4
0	23126	13	4
0	23127	13	4
0	23128	13	4
0	23129	13	4
0	23130	13	4
0	23131	13	4
0	23132	13	4
0	23133	13	4
0	23134	13	4
0	23185	13.05	4
0	23186	13.05	4
0	23187	13.05	4
0	23188	13.05	4
0	23189	13.05	4
0	23235	13.1	4
0	23236	13.1	4
0	23237	13.1	4
0	23238	13.1	4
0	23239	13.1	4
0	23240	13.1	4
0	23241	13.1	4
0	23242	13.1	4
0	23243	13.1	4
0	23244	13.1	4
0	23347	13.15	4
0	23348	13.15	4
0	23349	13.15	4
0	23350	13.15	4
0	23351	13.15	4
0	23392	13.2	4
0	23393	13.2	4
0	23394	13.2	4
0	23395	13.2	4
0	23396	13.2	4
0	23397	13.2	4
0	23398	13.2	4
0	23399	13.2	4
0	23400	13.2	4
0	23401	13.2	4
0	23579	13.25	4
0	23580	13.25	4
0	23581	13.25	4
0	23582	13.25	4
0	23583	13.25	4
0	23811	13.3	4
0	23812	13.3	4
0	23813	13.3	4
0	23814	13.3	4
0	23815	13.3	4
0	23816	13.3	4
0	23817	13.3	4
0	23818	13.3	4
0	23819	13.3	4
0	23820	13.3	4
0	23911	13.35	4
0	23912	13.35	4
0	23913	13.35	4
0	23914	13.35	4
0	23915	13.35	4
0	23956	13.4	4
0	23957	13.4	4
0	23958	13.4	4
0	23959	13.4	4
0	23960	13.4	4
0	23961	13.4	4
0	23962	13.4	4
0	23963	13.4	4
0	23964	13.4	4
0	23965	13.4	4
0	24039	13.45	4
0	24040	13.45	4
0	24041	13.45	4
0	24042	13.45	4
0	24043	13.45	4
0	24084	13.5	4
0	24085	13.5	4
0	24086	13.5	4
0	24087	13.5	4
0	24088	13.5	4
0	24089	13.5	4
0	24090	13.5	4
0	24091	13.5	4
0	24092	13.5	4
0	24093	13.5	4
0	24167	13.55	4
0	24168	13.55	4
0	24169	13.55	4
0	24170	13.55	4
0	24171	13.55	4
0	24212	13.6	4
0	24213	13.6	4
0	24214	13.6	4
0	24215	13.6	4
0	24216	13.6	4
0	24217	13.6	4
0	24218	13.6	4
0	24219	13.6	4
0	24220	13.6	4
0	24221	13.6	4
0	24272	13.65	4
0	24273	13.65	4
0	24274	13.65	4
0	24275	13.65	4
0	24276	13.65	4
0	24357	13.7	4
0	24358	13.7	4
0	24359	13.7	4
0	24360	13.7	4
0	24361	13.7	4
0	24362	13.7	4
0	24363	13.7	4
0	24364	13.7	4
0	24365	13.7	4
0	24366	13.7	4
0	24417	13.75	4
0	24418	13.75	4
0	24419	13.75	4
0	24420	13.75	4
0	24421	13.75	4
0	24589	13.8	4
0	24590	13.8	4
0	24591	13.8	4
0	24592	13.8	4
0	24593	13.8	4
0	24594	13.8	4
0	24595	13.8	4
0	24596	13.8	4
0	24597	13.8	4
0	24598	13.8	4
0	24752	13.85	4
0	24753	13.85	4
0	24754	13.85	4
0	24755	13.85	4
0	24756	13.85	4
0	24843	13.9	4
0	24844	13.9	4
0	24845	13.9	4
0	24846	13.9	4
0	24847	13.9	4
0	24848	13.9	4
0	24849	13.9	4
0	24850	13.9	4
0	24851	13.9	4
0	24852	13.9	4
0	24903	13.95	4
0	24904	13.95	4
0	24905	13.95	4
0	24906	13.95	4
0	24907	13.95	4
0	24971	14	4
0	24972	14	4
0	24973	14	4
0	24974	14	4
0	24975	14	4
0	24976	14	4
0	24977	14	4
0	24978	14	4
0	24979	14	4
0	24980	14	4
0	25031	14.05	4
0	25032	14.05	4
0	25033	14.05	4
0	25034	14.05	4
0	25035	14.05	4
0	25104	14.1	4
0	25105	14.1	4
0	25106	14.1	4
0	25107	14.1	4
0	25108	14.1	4
0	25109	14.1	4
0	25110	14.1	4
0	25111	14.1	4
0	25112	14.1	4
0	25113	14.1	4
0	25193	14.15	4
0	25194	14.15	4
0	25195	14.15	4
0	25196	14.15	4
0	25197	14.15	4
0	25238	14.2	4
0	25239	14.2	4
0	25240	14.2	4
0	25241	14.2	4
0	25242	14.2	4
0	25243	14.2	4
0	25244	14.2	4
0	25245	14.2	4
0	25246	14.2	4
0	25247	14.2	4
0	25344	14.25	4
0	25345	14.25	4
0	25346	14.25	4
0	25347	14.25	4
0	25348	14.25	4
0	25435	14.3	4
0	25436	14.3	4
0	25437	14.3	4
0	25438	14.3	4
0	25439	14.3	4
0	25440	14.3	4
0	25441	14.3	4
0	25442	14.3	4
0	25443	14.3	4
0	25444	14.3	4
0	25622	14.35	4
0	25623	14.35	4
0	25624	14.35	4
0	25625	14.35	4
0	25626	14.35	4
0	25854	14.4	4
0	25855	14.4	4
0	25856	14.4	4
0	25857	14.4	4
0	25858	14.4	4
0	25859	14.4	4
0	25860	14.4	4
0	25861	14.4	4
0	25862	14.4	4
0	25863	14.4	4
0	25977	14.45	4
0	25978	14.45	4
0	25979	14.45	4
0	25980	14.45	4
0	25981	14.45	4
0	26022	14.5	4
0	26023	14.5	4
0	26024	14.5	4
0	26025	14.5	4
0	26026	14.5	4
0	26027	14.5	4
0	26028	14.5	4
0	26029	14.5	4
0	26030	14.5	4
0	26031	14.5	4
0	26105	14.55	4
0	26106	14.55	4
0	26107	14.55	4
0	26108	14.55	4
0	26109	14.55	4
0	26150	14.6	4
0	26151	14.6	4
0	26152	14.6	4
0	26153	14.6	4
0	26154	14.6	4
0	26155	14.6	4
0	26156	14.6	4
0	26157	14.6	4
0	26158	14.6	4
0	26159	14.6	4
0	26233	14.65	4
0	26234	14.65	4
0	26235	14.65	4
0	26236	14.65	4
0	26237	14.65	4
0	26283	14.7	4
0	26284	14.7	4
0	26285	14.7	4
0	26286	14.7	4
0	26287	14.7	4
0	26288	14.7	4
0	26289	14.7	4
0	26290	14.7	4
0	26291	14.7	4
0	26292	14.7	4
0	26343	14.75	4
0	26344	14.75	4
0	26345	14.75	4
0	26346	14.75	4
0	26347	14.75	4
0	26434	14.8	4
0	26435	14.8	4
0	26436	14.8	4
0	26437	14.8	4
0	26438	14.8	4
0	26439	14.8	4
0	26440	14.8	4
0	26441	14.8	4
0	26442	14.8	4
0	26443	14.8	4
0	26517	14.85	4
0	26518	14.85	4
0	26519	14.85	4
0	26520	14.85	4
0	26521	14.85	4
0	26689	14.9	4
0	26690	14.9	4
0	26691	14.9	4
0	26692	14.9	4
0	26693	14.9	4
0	26694	14.9	4
0	26695	14.9	4
0	26696	14.9	4
0	26697	14.9	4
0	26698	14.9	4
0	26834	14.95	4
0	26835	14.95	4
0	26836	14.95	4
0	26837	14.95	4
0	26838	14.95	4
0	26930	15	4
0	26931	15	4
0	26932	15	4
0	26933	15	4
0	26934	15	4
0	26935	15	4
0	26936	15	4
0	26937	15	4
0	26938	15	4
0	26939	15	4
0	26990	15.05	4
0	26991	15.05	4
0	26992	15.05	4
0	26993	15.05	4
0	26994	15.05	4
0	27063	15.1	4
0	27064	15.1	4
0	27065	15.1	4
0	27066	15.1	4
0	27067	15.1	4
0	27068	15.1	4
0	27069	15.1	4
0	27070	15.1	4
0	27071	15.1	4
0	27072	15.1	4
0	27129	15.15	4
0	27130	15.15	4
0	27131	15.15	4
0	27132	15.15	4
0	27133	15.15	4
0	27174	15.2	4
0	27175	15.2	4
0	27176	15.2	4
0	27177	15.2	4
0	27178	15.2	4
0	27179	15.2	4
0	27180	15.2	4
0	27181	15.2	4
0	27182	15.2	4
0	27183	15.2	4
0	27234	15.25	4
0	27235	15.25	4
0	27236	15.25	4
0	27237	15.25	4
0	27238	15.25	4
0	27279	15.3	4
0	27280	15.3	4
0	27281	15.3	4
0	27282	15.3	4
0	27283	15.3	4
0	27284	15.3	4
0	27285	15.3	4
0	27286	15.3	4
0	27287	15.3	4
0	27288	15.3	4
0	27362	15.35	4
0	27363	15.35	4
0	27364	15.35	4
0	27365	15.35	4
0	27366	15.35	4
0	27430	15.4	4
0	27431	15.4	4
0	27432	15.4	4
0	27433	15.4	4
0	27434	15.4	4
0	27435	15.4	4
0	27436	15.4	4
0	27437	15.4	4
0	27438	15.4	4
0	27439	15.4	4
0	27617	15.45	4
0	27618	15.45	4
0	27619	15.45	4
0	27620	15.45	4
0	27621	15.45	4
0	27826	15.5	4
0	27827	15.5	4
0	27828	15.5	4
0	27829	15.5	4
0	27830	15.5	4
0	27831	15.5	4
0	27832	15.5	4
0	27833	15.5	4
0	27834	15.5	4
0	27835	15.5	4
0	27932	15.55	4
0	27933	15.55	4
0	27934	15.55	4
0	27935	15.55	4
0	27936	15.55	4
0	27977	15.6	4
0	27978	15.6	4
0	27979	15.6	4
0	27980	15.6	4
0	27981	15.6	4
0	27982	15.6	4
0	27983	15.6	4
0	27984	15.6	4
0	27985	15.6	4
0	27986	15.6	4
0	28060	15.65	4
0	28061	15.65	4
0	28062	15.65	4
0	28063	15.65	4
0	28064	15.65	4
0	28105	15.7	4
0	28106	15.7	4
0	28107	15.7	4
0	28108	15.7	4
0	28109	15.7	4
0	28110	15.7	4
0	28111	15.7	4
0	28112	15.7	4
0	28113	15.7	4
0	28114	15.7	4
0	28165	15.75	4
0	28166	15.75	4
0	28167	15.75	4
0	28168	15.75	4
0	28169	15.75	4
0	28210	15.8	4
0	28211	15.8	4
0	28212	15.8	4
0	28213	15.8	4
0	28214	15.8	4
0	28215	15.8	4
0	28216	15.8	4
0	28217	15.8	4
0	28218	15.8	4
0	28219	15.8	4
0	28270	15.85	4
0	28271	15.85	4
0	28272	15.85	4
0	28273	15.85	4
0	28274	15.85	4
0	28343	15.9	4
0	28344	15.9	4
0	28345	15.9	4
0	28346	15.9	4
0	28347	15.9	4
0	28348	15.9	4
0	28349	15.9	4
0	28350	15.9	4
0	28351	15.9	4
0	28352	15.9	4
0	28426	15.95	4
0	28427	15.95	4
0	28428	15.95	4
0	28429	15.95	4
0	28430	15.95	4
0	28598	16	4
0	28599	16	4
0	28600	16	4
0	28601	16	4
0	28602	16	4
0	28603	16	4
0	28604	16	4
0	28605	16	4
0	28606	16	4
0	28607	16	4
0	28738	16.05	4
0	28739	16.05	4
0	28740	16.05	4
0	28741	16.05	4
0	28742	16.05	4
0	28816	16.1	4
0	28817	16.1	4
0	28818	16.1	4
0	28819	16.1	4
0	28820	16.1	4
0	28821	16.1	4
0	28822	16.1	4
0	28823	16.1	4
0	28824	16.1	4
0	28825	16.1	4
0	28882	16.15	4
0	28883	16.15	4
0	28884	16.15	4
0	28885	16.15	4
0	28886	16.15	4
0	28950	16.2	4
0	28951	16.2	4
0	28952	16.2	4
0	28953	16.2	4
0	28954	16.2	4
0	28955	16.2	4
0	28956	16.2	4
0	28957	16.2	4
0	28958	16.2	4
0	28959	16.2	4
0	29033	16.25	4
0	29034	16.25	4
0	29035	16.25	4
0	29036	16.25	4
0	29037	16.25	4
0	29101	16.3	4
0	29102	16.3	4
0	29103	16.3	4
0	29104	16.3	4
0	29105	16.3	4
0	29106	16.3	4
0	29107	16.3	4
0	29108	16.3	4
0	29109	16.3	4
0	29110	16.3	4
0	29184	16.35	4
0	29185	16.35	4
0	29186	16.35	4
0	29187	16.35	4
0	29188	16.35	4
0	29252	16.4	4
0	29253	16.4	4
0	29254	16.4	4
0	29255	16.4	4
0	29256	16.4	4
0	29257	16.4	4
0	29258	16.4	4
0	29259	16.4	4
0	29260	16.4	4
0	29261	16.4	4
0	29358	16.45	4
0	29359	16.45	4
0	29360	16.45	4
0	29361	16.45	4
0	29362	16.45	4
0	29426	16.5	4
0	29427	16.5	4
0	29428	16.5	4
0	29429	16.5	4
0	29430	16.5	4
0	29431	16.5	4
0	29432	16.5	4
0	29433	16.5	4
0	29434	16.5	4
0	29435	16.5	4
0	29613	16.55	4
0	29614	16.55	4
0	29615	16.55	4
0	29616	16.55	4
0	29617	16.55	4
0	29804	16.6	4
0	29805	16.6	4
0	29806	16.6	4
0	29807	16.6	4
0	29808	16.6	4
0	29809	16.6	4
0	29810	16.6	4
0	29811	16.6	4
0	29812	16.6	4
0	29813	16.6	4
0	29887	16.65	4
0	29888	16.65	4
0	29889	16.65	4
0	29890	16.65	4
0	29891	16.65	4
0	29932	16.7	4
0	29933	16.7	4
0	29934	16.7	4
0	29935	16.7	4
0	29936	16.7	4
0	29937	16.7	4
0	29938	16.7	4
0	29939	16.7	4
0	29940	16.7	4
0	29941	16.7	4
0	29992	16.75	4
0	29993	16.75	4
0	29994	16.75	4
0	29995	16.75	4
0	29996	16.75	4
0	30060	16.8	4
0	30061	16.8	4
0	30062	16.8	4
0	30063	16.8	4
0	30064	16.8	4
0	30065	16.8	4
0	30066	16.8	4
0	30067	16.8	4
0	30068	16.8	4
0	30069	16.8	4
0	30137	16.85	4
0	30138	16.85	4
0	30139	16.85	4
0	30140	16.85	4
0	30141	16.85	4
0	30205	16.9	4
0	30206	16.9	4
0	30207	16.9	4
0	30208	16.9	4
0	30209	16.9	4
0	30210	16.9	4
0	30211	16.9	4
0	30212	16.9	4
0	30213	16.9	4
0	30214	16.9	4
0	30288	16.95	4
0	30289	16.95	4
0	30290	16.95	4
0	30291	16.95	4
0	30292	16.95	4
0	30366	17	4
0	30367	17	4
0	30368	17	4
0	30369	17	4
0	30370	17	4
0	30371	17	4
0	30372	17	4
0	30373	17	4
0	30374	17	4
0	30375	17	4
0	30449	17.05	4
0	30450	17.05	4
0	30451	17.05	4
0	30452	17.05	4
0	30453	17.05	4
0	30626	17.1	4
0	30627	17.1	4
0	30628	17.1	4
0	30629	17.1	4
0	30630	17.1	4
0	30631	17.1	4
0	30632	17.1	4
0	30633	17.1	4
0	30634	17.1	4
0	30635	17.1	4
0	30833	17.15	4
0	30834	17.15	4
0	30835	17.15	4
0	30836	17.15	4
0	30837	17.15	4
0	30901	17.2	4
0	30902	17.2	4
0	30903	17.2	4
0	30904	17.2	4
0	30905	17.2	4
0	30906	17.2	4
0	30907	17.2	4
0	30908	17.2	4
0	30909	17.2	4
0	30910	17.2	4
0	30961	17.25	4
0	30962	17.25	4
0	30963	17.25	4
0	30964	17.25	4
0	30965	17.25	4
0	31006	17.3	4
0	31007	17.3	4
0	31008	17.3	4
0	31009	17.3	4
0	31010	17.3	4
0	31011	17.3	4
0	31012	17.3	4
0	31013	17.3	4
0	31014	17.3	4
0	31015	17.3	4
0	31089	17.35	4
0	31090	17.35	4
0	31091	17.35	4
0	31092	17.35	4
0	31093	17.35	4
0	31134	17.4	4
0	31135	17.4	4
0	31136	17.4	4
0	31137	17.4	4
0	31138	17.4	4
0	31139	17.4	4
0	31140	17.4	4
0	31141	17.4	4
0	31142	17.4	4
0	31143	17.4	4
0	31217	17.45	4
0	31218	17.45	4
0	31219	17.45	4
0	31220	17.45	4
0	31221	17.45	4
0	31285	17.5	4
0	31286	17.5	4
0	31287	17.5	4
0	31288	17.5	4
0	31289	17.5	4
0	31290	17.5	4
0	31291	17.5	4
0	31292	17.5	4
0	31293	17.5	4
0	31294	17.5	4
0	31385	17.55	4
0	31386	17.55	4
0	31387	17.55	4
0	31388	17.55	4
0	31389	17.55	4
0	31453	17.6	4
0	31454	17.6	4
0	31455	17.6	4
0	31456	17.6	4
0	31457	17.6	4
0	31458	17.6	4
0	31459	17.6	4
0	31460	17.6	4
0	31461	17.6	4
0	31462	17.6	4
0	31640	17.65	4
0	31641	17.65	4
0	31642	17.65	4
0	31643	17.65	4
0	31644	17.65	4
0	31747	17.7	4
0	31748	17.7	4
0	31749	17.7	4
0	31750	17.7	4
0	31751	17.7	4
0	31752	17.7	4
0	31753	17.7	4
0	31754	17.7	4
0	31755	17.7	4
0	31756	17.7	4
0	31830	17.75	4
0	31831	17.75	4
0	31832	17.75	4
0	31833	17.75	4
0	31834	17.75	4
0	31892	17.8	4
0	31893	17.8	4
0	31894	17.8	4
0	31895	17.8	4
0	31896	17.8	4
0	31897	17.8	4
0	31898	17.8	4
0	31899	17.8	4
0	31900	17.8	4
0	31901	17.8	4
0	31952	17.85	4
0	31953	17.85	4
0	31954	17.85	4
0	31955	17.85	4
0	31956	17.85	4
0	32020	17.9	4
0	32021	17.9	4
0	32022	17.9	4
0	32023	17.9	4
0	32024	17.9	4
0	32025	17.9	4
0	32026	17.9	4
0	32027	17.9	4
0	32028	17.9	4
0	32029	17.9	4
0	32103	17.95	4
0	32104	17.95	4
0	32105	17.95	4
0	32106	17.95	4
0	32107	17.95	4
0	32171	18	4
0	32172	18	4
0	32173	18	4
0	32174	18	4
0	32175	18	4
0	32176	18	4
0	32177	18	4
0	32178	18	4
0	32179	18	4
0	32180	18	4
0	32254	18.05	4
0	32255	18.05	4
0	32256	18.05	4
0	32257	18.05	4
0	32258	18.05	4
0	32327	18.1	4
0	32328	18.1	4
0	32329	18.1	4
0	32330	18.1	4
0	32331	18.1	4
0	32332	18.1	4
0	32333	18.1	4
0	32334	18.1	4
0	32335	18.1	4
0	32336	18.1	4
0	32416	18.15	4
0	32417	18.15	4
0	32418	18.15	4
0	32419	18.15	4
0	32420	18.15	4
0	32588	18.2	4
0	32589	18.2	4
0	32590	18.2	4
0	32591	18.2	4
0	32592	18.2	4
0	32593	18.2	4
0	32594	18.2	4
0	32595	18.2	4
0	32596	18.2	4
0	32597	18.2	4
0	32789	18.25	4
0	32790	18.25	4
0	32791	18.25	4
0	32792	18.25	4
0	32793	18.25	4
0	32857	18.3	4
0	32858	18.3	4
0	32859	18.3	4
0	32860	18.3	4
0	32861	18.3	4
0	32862	18.3	4
0	32863	18.3	4
0	32864	18.3	4
0	32865	18.3	4
0	32866	18.3	4
0	32940	18.35	4
0	32941	18.35	4
0	32942	18.35	4
0	32943	18.35	4
0	32944	18.35	4
0	32985	18.4	4
0	32986	18.4	4
0	32987	18.4	4
0	32988	18.4	4
0	32989	18.4	4
0	32990	18.4	4
0	32991	18.4	4
0	32992	18.4	4
0	32993	18.4	4
0	32994	18.4	4
0	33091	18.45	4
0	33092	18.45	4
0	33093	18.45	4
0	33094	18.45	4
0	33095	18.45	4
0	33159	18.5	4
0	33160	18.5	4
0	33161	18.5	4
0	33162	18.5	4
0	33163	18.5	4
0	33164	18.5	4
0	33165	18.5	4
0	33166	18.5	4
0	33167	18.5	4
0	33168	18.5	4
0	33242	18.55	4
0	33243	18.55	4
0	33244	18.55	4
0	33245	18.55	4
0	33246	18.55	4
0	33315	18.6	4
0	33316	18.6	4
0	33317	18.6	4
0	33318	18.6	4
0	33319	18.6	4
0	33320	18.6	4
0	33321	18.6	4
0	33322	18.6	4
0	33323	18.6	4
0	33324	18.6	4
0	33380	18.65	4
0	33381	18.65	4
0	33382	18.65	4
0	33383	18.65	4
0	33384	18.65	4
0	33448	18.7	4
0	33449	18.7	4
0	33450	18.7	4
0	33451	18.7	4
0	33452	18.7	4
0	33453	18.7	4
0	33454	18.7	4
0	33455	18.7	4
0	33456	18.7	4
0	33457	18.7	4
0	33635	18.75	4
0	33636	18.75	4
0	33637	18.75	4
0	33638	18.75	4
0	33639	18.75	4
0	33737	18.8	4
0	33738	18.8	4
0	33739	18.8	4
0	33740	18.8	4
0	33741	18.8	4
0	33742	18.8	4
0	33743	18.8	4
0	33744	18.8	4
0	33745	18.8	4
0	33746	18.8	4
0	33797	18.85	4
0	33798	18.85	4
0	33799	18.85	4
0	33800	18.85	4
0	33801	18.85	4
0	33865	18.9	4
0	33866	18.9	4
0	33867	18.9	4
0	33868	18.9	4
0	33869	18.9	4
0	33870	18.9	4
0	33871	18.9	4
0	33872	18.9	4
0	33873	18.9	4
0	33874	18.9	4
0	33925	18.95	4
0	33926	18.95	4
0	33927	18.95	4
0	33928	18.95	4
0	33929	18.95	4
0	33993	19	4
0	33994	19	4
0	33995	19	4
0	33996	19	4
0	33997	19	4
0	33998	19	4
0	33999	19	4
0	34000	19	4
0	34001	19	4
0	34002	19	4
0	34076	19.05	4
0	34077	19.05	4
0	34078	19.05	4
0	34079	19.05	4
0	34080	19.05	4
0	34149	19.1	4
0	34150	19.1	4
0	34151	19.1	4
0	34152	19.1	4
0	34153	19.1	4
0	34154	19.1	4
0	34155	19.1	4
0	34156	19.1	4
0	34157	19.1	4
0	34158	19.1	4
0	34261	19.15	4
0	34262	19.15	4
0	34263	19.15	4
0	34264	19.15	4
0	34265	19.15	4
0	34306	19.2	4
0	34307	19.2	4
0	34308	19.2	4
0	34309	19.2	4
0	34310	19.2	4
0	34311	19.2	4
0	34312	19.2	4
0	34313	19.2	4
0	34314	19.2	4
0	34315	19.2	4
0	34389	19.25	4
0	34390	19.25	4
0	34391	19.25	4
0	34392	19.25	4
0	34393	19.25	4
0	34584	19.3	4
0	34585	19.3	4
0	34586	19.3	4
0	34587	19.3	4
0	34588	19.3	4
0	34589	19.3	4
0	34590	19.3	4
0	34591	19.3	4
0	34592	19.3	4
0	34593	19.3	4
0	34785	19.35	4
0	34786	19.35	4
0	34787	19.35	4
0	34788	19.35	4
0	34789	19.35	4
0	34830	19.4	4
0	34831	19.4	4
0	34832	19.4	4
0	34833	19.4	4
0	34834	19.4	4
0	34835	19.4	4
0	34836	19.4	4
0	34837	19.4	4
0	34838	19.4	4
0	34839	19.4	4
0	34913	19.45	4
0	34914	19.45	4
0	34915	19.45	4
0	34916	19.45	4
0	34917	19.45	4
0	34958	19.5	4
0	34959	19.5	4
0	34960	19.5	4
0	34961	19.5	4
0	34962	19.5	4
0	34963	19.5	4
0	34964	19.5	4
0	34965	19.5	4
0	34966	19.5	4
0	34967	19.5	4
0	35041	19.55	4
0	35042	19.55	4
0	35043	19.55	4
0	35044	19.55	4
0	35045	19.55	4
0	35109	19.6	4
0	35110	19.6	4
0	35111	19.6	4
0	35112	19.6	4
0	35113	19.6	4
0	35114	19.6	4
0	35115	19.6	4
0	35116	19.6	4
0	35117	19.6	4
0	35118	19.6	4
0	35192	19.65	4
0	35193	19.65	4
0	35194	19.65	4
0	35195	19.65	4
0	35196	19.65	4
0	35277	19.7	4
0	35278	19.7	4
0	35279	19.7	4
0	35280	19.7	4
0	35281	19.7	4
0	35282	19.7	4
0	35283	19.7	4
0	35284	19.7	4
0	35285	19.7	4
0	35286	19.7	4
0	35337	19.75	4
0	35338	19.75	4
0	35339	19.75	4
0	35340	19.75	4
0	35341	19.75	4
0	35399	19.8	4
0	35400	19.8	4
0	35401	19.8	4
0	35402	19.8	4
0	35403	19.8	4
0	35404	19.8	4
0	35405	19.8	4
0	35406	19.8	4
0	35407	19.8	4
0	35408	19.8	4
0	35609	19.85	4
0	35610	19.85	4
0	35611	19.85	4
0	35612	19.85	4
0	35613	19.85	4
0	35734	19.9	4
0	35735	19.9	4
0	35736	19.9	4
0	35737	19.9	4
0	35738	19.9	4
0	35739	19.9	4
0	35740	19.9	4
0	35741	19.9	4
0	35742	19.9	4
0	35743	19.9	4
0	35794	19.95	4
0	35795	19.95	4
0	35796	19.95	4
0	35797	19.95	4
0	35798	19.95	4
0	35862	20	4
0	35863	20	4
0	35864	20	4
0	35865	20	4
0	35866	20	4
0	35867	20	4
0	35868	20	4
0	35869	20	4
0	35870	20	4
0	35871	20	4
0	35968	20.05	4
0	35969	20.05	4
0	35970	20.05	4
0	35971	20.05	4
0	35972	20.05	4
0	36041	20.1	4
0	36042	20.1	4
0	36043	20.1	4
0	36044	20.1	4
0	36045	20.1	4
0	36046	20.1	4
0	36047	20.1	4
0	36048	20.1	4
0	36049	20.1	4
0	36050	20.1	4
0	36130	20.15	4
0	36131	20.15	4
0	36132	20.15	4
0	36133	20.15	4
0	36134	20.15	4
0	36215	20.2	4
0	36216	20.2	4
0	36217	20.2	4
0	36218	20.2	4
0	36219	20.2	4
0	36220	20.2	4
0	36221	20.2	4
0	36222	20.2	4
0	36223	20.2	4
0	36224	20.2	4
0	36315	20.25	4
0	36316	20.25	4
0	36317	20.25	4
0	36318	20.25	4
0	36319	20.25	4
0	36360	20.3	4
0	36361	20.3	4
0	36362	20.3	4
0	36363	20.3	4
0	36364	20.3	4
0	36365	20.3	4
0	36366	20.3	4
0	36367	20.3	4
0	36368	20.3	4
0	36369	20.3	4
0	36443	20.35	4
0	36444	20.35	4
0	36445	20.35	4
0	36446	20.35	4
0	36447	20.35	4
0	36638	20.4	4
0	36639	20.4	4
0	36640	20.4	4
0	36641	20.4	4
0	36642	20.4	4
0	36643	20.4	4
0	36644	20.4	4
0	36645	20.4	4
0	36646	20.4	4
0	36647	20.4	4
0	36844	20.45	4
0	36845	20.45	4
0	36846	20.45	4
0	36847	20.45	4
0	36848	20.45	4
0	36889	20.5	4
0	36890	20.5	4
0	36891	20.5	4
0	36892	20.5	4
0	36893	20.5	4
0	36894	20.5	4
0	36895	20.5	4
0	36896	20.5	4
0	36897	20.5	4
0	36898	20.5	4
0	36972	20.55	4
0	36973	20.55	4
0	36974	20.55	4
0	36975	20.55	4
0	36976	20.55	4
0	37022	20.6	4
0	37023	20.6	4
0	37024	20.6	4
0	37025	20.6	4
0	37026	20.6	4
0	37027	20.6	4
0	37028	20.6	4
0	37029	20.6	4
0	37030	20.6	4
0	37031	20.6	4
0	37105	20.65	4
0	37106	20.65	4
0	37107	20.65	4
0	37108	20.65	4
0	37109	20.65	4
0	37173	20.7	4
0	37174	20.7	4
0	37175	20.7	4
0	37176	20.7	4
0	37177	20.7	4
0	37178	20.7	4
0	37179	20.7	4
0	37180	20.7	4
0	37181	20.7	4
0	37182	20.7	4
0	37256	20.75	4
0	37257	20.75	4
0	37258	20.75	4
0	37259	20.75	4
0	37260	20.75	4
0	37347	20.8	4
0	37348	20.8	4
0	37349	20.8	4
0	37350	20.8	4
0	37351	20.8	4
0	37352	20.8	4
0	37353	20.8	4
0	37354	20.8	4
0	37355	20.8	4
0	37356	20.8	4
0	37407	20.85	4
0	37408	20.85	4
0	37409	20.85	4
0	37410	20.85	4
0	37411	20.85	4
0	37475	20.9	4
0	37476	20.9	4
0	37477	20.9	4
0	37478	20.9	4
0	37479	20.9	4
0	37480	20.9	4
0	37481	20.9	4
0	37482	20.9	4
0	37483	20.9	4
0	37484	20.9	4
0	37685	20.95	4
0	37686	20.95	4
0	37687	20.95	4
0	37688	20.95	4
0	37689	20.95	4
0	37787	21	4
0	37788	21	4
0	37789	21	4
0	37790	21	4
0	37791	21	4
0	37792	21	4
0	37793	21	4
0	37794	21	4
0	37795	21	4
0	37796	21	4
0	37847	21.05	4
0	37848	21.05	4
0	37849	21.05	4
0	37850	21.05	4
0	37851	21.05	4
0	37920	21.1	4
0	37921	21.1	4
0	37922	21.1	4
0	37923	21.1	4
0	37924	21.1	4
0	37925	21.1	4
0	37926	21.1	4
0	37927	21.1	4
0	37928	21.1	4
0	37929	21.1	4
0	37986	21.15	4
0	37987	21.15	4
0	37988	21.15	4
0	37989	21.15	4
0	37990	21.15	4
0	38054	21.2	4
0	38055	21.2	4
0	38056	21.2	4
0	38057	21.2	4
0	38058	21.2	4
0	38059	21.2	4
0	38060	21.2	4
0	38061	21.2	4
0	38062	21.2	4
0	38063	21.2	4
0	38137	21.25	4
0	38138	21.25	4
0	38139	21.25	4
0	38140	21.25	4
0	38141	21.25	4
0	38199	21.3	4
0	38200	21.3	4
0	38201	21.3	4
0	38202	21.3	4
0	38203	21.3	4
0	38204	21.3	4
0	38205	21.3	4
0	38206	21.3	4
0	38207	21.3	4
0	38208	21.3	4
0	38305	21.35	4
0	38306	21.35	4
0	38307	21.35	4
0	38308	21.35	4
0	38309	21.35	4
0	38350	21.4	4
0	38351	21.4	4
0	38352	21.4	4
0	38353	21.4	4
0	38354	21.4	4
0	38355	21.4	4
0	38356	21.4	4
0	38357	21.4	4
0	38358	21.4	4
0	38359	21.4	4
0	38433	21.45	4
0	38434	21.45	4
0	38435	21.45	4
0	38436	21.45	4
0	38437	21.45	4
0	38610	21.5	4
0	38611	21.5	4
0	38612	21.5	4
0	38613	21.5	4
0	38614	21.5	4
0	38615	21.5	4
0	38616	21.5	4
0	38617	21.5	4
0	38618	21.5	4
0	38619	21.5	4
0	38811	21.55	4
0	38812	21.55	4
0	38813	21.55	4
0	38814	21.55	4
0	38815	21.55	4
0	38856	21.6	4
0	38857	21.6	4
0	38858	21.6	4
0	38859	21.6	4
0	38860	21.6	4
0	38861	21.6	4
0	38862	21.6	4
0	38863	21.6	4
0	38864	21.6	4
0	38865	21.6	4
0	38962	21.65	4
0	38963	21.65	4
0	38964	21.65	4
0	38965	21.65	4
0	38966	21.65	4
0	39007	21.7	4
0	39008	21.7	4
0	39009	21.7	4
0	39010	21.7	4
0	39011	21.7	4
0	39012	21.7	4
0	39013	21.7	4
0	39014	21.7	4
0	39015	21.7	4
0	39016	21.7	4
0	39090	21.75	4
0	39091	21.75	4
0	39092	21.75	4
0	39093	21.75	4
0	39094	21.75	4
0	39204	21.8	4
0	39205	21.8	4
0	39206	21.8	4
0	39207	21.8	4
0	39208	21.8	4
0	39209	21.8	4
0	39210	21.8	4
0	39211	21.8	4
0	39212	21.8	4
0	39213	21.8	4
0	39287	21.85	4
0	39288	21.85	4
0	39289	21.85	4
0	39290	21.85	4
0	39291	21.85	4
0	39355	21.9	4
0	39356	21.9	4
0	39357	21.9	4
0	39358	21.9	4
0	39359	21.9	4
0	39360	21.9	4
0	39361	21.9	4
0	39362	21.9	4
0	39363	21.9	4
0	39364	21.9	4
0	39438	21.95	4
0	39439	21.95	4
0	39440	21.95	4
0	39441	21.95	4
0	39442	21.95	4
0	39511	22	4
0	39512	22	4
0	39513	22	4
0	39514	22	4
0	39515	22	4
0	39516	22	4
0	39517	22	4
0	39518	22	4
0	39519	22	4
0	39520	22	4
0	39698	22.05	4
0	39699	22.05	4
0	39700	22.05	4
0	39701	22.05	4
0	39702	22.05	4
0	39805	22.1	4
0	39806	22.1	4
0	39807	22.1	4
0	39808	22.1	4
0	39809	22.1	4
0	39810	22.1	4
0	39811	22.1	4
0	39812	22.1	4
0	39813	22.1	4
0	39814	22.1	4
0	39871	22.15	4
0	39872	22.15	4
0	39873	22.15	4
0	39874	22.15	4
0	39875	22.15	4
0	39962	22.2	4
0	39963	22.2	4
0	39964	22.2	4
0	39965	22.2	4
0	39966	22.2	4
0	39967	22.2	4
0	39968	22.2	4
0	39969	22.2	4
0	39970	22.2	4
0	39971	22.2	4
0	40022	22.25	4
0	40023	22.25	4
0	40024	22.25	4
0	40025	22.25	4
0	40026	22.25	4
0	40090	22.3	4
0	40091	22.3	4
0	40092	22.3	4
0	40093	22.3	4
0	40094	22.3	4
0	40095	22.3	4
0	40096	22.3	4
0	40097	22.3	4
0	40098	22.3	4
0	40099	22.3	4
0	40201	22.35	4
0	40202	22.35	4
0	40203	22.35	4
0	40204	22.35	4
0	40205	22.35	4
0	40269	22.4	4
0	40270	22.4	4
0	40271	22.4	4
0	40272	22.4	4
0	40273	22.4	4
0	40274	22.4	4
0	40275	22.4	4
0	40276	22.4	4
0	40277	22.4	4
0	40278	22.4	4
0	40334	22.45	4
0	40335	22.45	4
0	40336	22.45	4
0	40337	22.45	4
0	40338	22.45	4
0	40384	22.5	4
0	40385	22.5	4
0	40386	22.5	4
0	40387	22.5	4
0	40388	22.5	4
0	40389	22.5	4
0	40390	22.5	4
0	40391	22.5	4
0	40392	22.5	4
0	40393	22.5	4
0	40467	22.55	4
0	40468	22.55	4
0	40469	22.55	4
0	40470	22.55	4
0	40471	22.55	4
0	40639	22.6	4
0	40640	22.6	4
0	40641	22.6	4
0	40642	22.6	4
0	40643	22.6	4
0	40644	22.6	4
0	40645	22.6	4
0	40646	22.6	4
0	40647	22.6	4
0	40648	22.6	4
0	40840	22.65	4
0	40841	22.65	4
0	40842	22.65	4
0	40843	22.65	4
0	40844	22.65	4
0	40885	22.7	4
0	40886	22.7	4
0	40887	22.7	4
0	40888	22.7	4
0	40889	22.7	4
0	40890	22.7	4
0	40891	22.7	4
0	40892	22.7	4
0	40893	22.7	4
0	40894	22.7	4
0	40968	22.75	4
0	40969	22.75	4
0	40970	22.75	4
0	40971	22.75	4
0	40972	22.75	4
0	41013	22.8	4
0	41014	22.8	4
0	41015	22.8	4
0	41016	22.8	4
0	41017	22.8	4
0	41018	22.8	4
0	41019	22.8	4
0	41020	22.8	4
0	41021	22.8	4
0	41022	22.8	4
0	41073	22.85	4
0	41074	22.85	4
0	41075	22.85	4
0	41076	22.85	4
0	41077	22.85	4
0	41123	22.9	4
0	41124	22.9	4
0	41125	22.9	4
0	41126	22.9	4
0	41127	22.9	4
0	41128	22.9	4
0	41129	22.9	4
0	41130	22.9	4
0	41131	22.9	4
0	41132	22.9	4
0	41229	22.95	4
0	41230	22.95	4
0	41231	22.95	4
0	41232	22.95	4
0	41233	22.95	4
0	41274	23	4
0	41275	23	4
0	41276	23	4
0	41277	23	4
0	41278	23	4
0	41279	23	4
0	41280	23	4
0	41281	23	4
0	41282	23	4
0	41283	23	4
0	41334	23.05	4
0	41335	23.05	4
0	41336	23.05	4
0	41337	23.05	4
0	41338	23.05	4
0	41424	23.1	4
0	41425	23.1	4
0	41426	23.1	4
0	41427	23.1	4
0	41428	23.1	4
0	41429	23.1	4
0	41430	23.1	4
0	41431	23.1	4
0	41432	23.1	4
0	41433	23.1	4
0	41617	23.15	4
0	41618	23.15	4
0	41619	23.15	4
0	41620	23.15	4
0	41621	23.15	4
0	41803	23.2	4
0	41804	23.2	4
0	41805	23.2	4
0	41806	23.2	4
0	41807	23.2	4
0	41808	23.2	4
0	41809	23.2	4
0	41810	23.2	4
0	41811	23.2	4
0	41812	23.2	4
0	41863	23.25	4
0	41864	23.25	4
0	41865	23.25	4
0	41866	23.25	4
0	41867	23.25	4
0	41908	23.3	4
0	41909	23.3	4
0	41910	23.3	4
0	41911	23.3	4
0	41912	23.3	4
0	41913	23.3	4
0	41914	23.3	4
0	41915	23.3	4
0	41916	23.3	4
0	41917	23.3	4
0	41968	23.35	4
0	41969	23.35	4
0	41970	23.35	4
0	41971	23.35	4
0	41972	23.35	4
0	42013	23.4	4
0	42014	23.4	4
0	42015	23.4	4
0	42016	23.4	4
0	42017	23.4	4
0	42018	23.4	4
0	42019	23.4	4
0	42020	23.4	4
0	42021	23.4	4
0	42022	23.4	4
0	42073	23.45	4
0	42074	23.45	4
0	42075	23.45	4
0	42076	23.45	4
0	42077	23.45	4
0	42164	23.5	4
0	42165	23.5	4
0	42166	23.5	4
0	42167	23.5	4
0	42168	23.5	4
0	42169	23.5	4
0	42170	23.5	4
0	42171	23.5	4
0	42172	23.5	4
0	42173	23.5	4
0	42224	23.55	4
0	42225	23.55	4
0	42226	23.55	4
0	42227	23.55	4
0	42228	23.55	4
0	42269	23.6	4
0	42270	23.6	4
0	42271	23.6	4
0	42272	23.6	4
0	42273	23.6	4
0	42274	23.6	4
0	42275	23.6	4
0	42276	23.6	4
0	42277	23.6	4
0	42278	23.6	4
0	42375	23.65	4
0	42376	23.65	4
0	42377	23.65	4
0	42378	23.65	4
0	42379	23.65	4
0	42547	23.7	4
0	42548	23.7	4
0	42549	23.7	4
0	42550	23.7	4
0	42551	23.7	4
0	42552	23.7	4
0	42553	23.7	4
0	42554	23.7	4
0	42555	23.7	4
0	42556	23.7	4
0	42664	23.75	4
0	42665	23.75	4
0	42666	23.75	4
0	42667	23.75	4
0	42668	23.75	4
0	42714	23.8	4
0	42715	23.8	4
0	42716	23.8	4
0	42717	23.8	4
0	42718	23.8	4
0	42719	23.8	4
0	42720	23.8	4
0	42721	23.8	4
0	42722	23.8	4
0	42723	23.8	4
0	42774	23.85	4
0	42775	23.85	4
0	42776	23.85	4
0	42777	23.85	4
0	42778	23.85	4
0	42842	23.9	4
0	42843	23.9	4
0	42844	23.9	4
0	42845	23.9	4
0	42846	23.9	4
0	42847	23.9	4
0	42848	23.9	4
0	42849	23.9	4
0	42850	23.9	4
0	42851	23.9	4
0	42930	23.95	4
0	42931	23.95	4
0	42932	23.95	4
0	42933	23.95	4
0	42934	23.95	4
0	42975	24	4
0	42976	24	4
0	42977	24	4
0	42978	24	4
0	42979	24	4
0	42980	24	4
0	42981	24	4
0	42982	24	4
0	42983	24	4
0	42984	24	4
0	43098	24.05	4
0	43099	24.05	4
0	43100	24.05	4
0	43101	24.05	4
0	43102	24.05	4
0	43171	24.1	4
0	43172	24.1	4
0	43173	24.1	4
0	43174	24.1	4
0	43175	24.1	4
0	43176	24.1	4
0	43177	24.1	4
0	43178	24.1	4
0	43179	24.1	4
0	43180	24.1	4
0	43237	24.15	4
0	43238	24.15	4
0	43239	24.15	4
0	43240	24.15	4
0	43241	24.15	4
0	43328	24.2	4
0	43329	24.2	4
0	43330	24.2	4
0	43331	24.2	4
0	43332	24.2	4
0	43333	24.2	4
0	43334	24.2	4
0	43335	24.2	4
0	43336	24.2	4
0	43337	24.2	4
0	43515	24.25	4
0	43516	24.25	4
0	43517	24.25	4
0	43518	24.25	4
0	43519	24.25	4
0	43701	24.3	4
0	43702	24.3	4
0	43703	24.3	4
0	43704	24.3	4
0	43705	24.3	4
0	43706	24.3	4
0	43707	24.3	4
0	43708	24.3	4
0	43709	24.3	4
0	43710	24.3	4
0	43807	24.35	4
0	43808	24.35	4
0	43809	24.35	4
0	43810	24.35	4
0	43811	24.35	4
0	43852	24.4	4
0	43853	24.4	4
0	43854	24.4	4
0	43855	24.4	4
0	43856	24.4	4
0	43857	24.4	4
0	43858	24.4	4
0	43859	24.4	4
0	43860	24.4	4
0	43861	24.4	4
0	43935	24.45	4
0	43936	24.45	4
0	43937	24.45	4
0	43938	24.45	4
0	43939	24.45	4
0	44049	24.5	4
0	44050	24.5	4
0	44051	24.5	4
0	44052	24.5	4
0	44053	24.5	4
0	44054	24.5	4
0	44055	24.5	4
0	44056	24.5	4
0	44057	24.5	4
0	44058	24.5	4
0	44109	24.55	4
0	44110	24.55	4
0	44111	24.55	4
0	44112	24.55	4
0	44113	24.55	4
0	44205	24.6	4
0	44206	24.6	4
0	44207	24.6	4
0	44208	24.6	4
0	44209	24.6	4
0	44210	24.6	4
0	44211	24.6	4
0	44212	24.6	4
0	44213	24.6	4
0	44214	24.6	4
0	44288	24.65	4
0	44289	24.65	4
0	44290	24.65	4
0	44291	24.65	4
0	44292	24.65	4
0	44333	24.7	4
0	44334	24.7	4
0	44335	24.7	4
0	44336	24.7	4
0	44337	24.7	4
0	44338	24.7	4
0	44339	24.7	4
0	44340	24.7	4
0	44341	24.7	4
0	44342	24.7	4
0	44421	24.75	4
0	44422	24.75	4
0	44423	24.75	4
0	44424	24.75	4
0	44425	24.75	4
0	44593	24.8	4
0	44594	24.8	4
0	44595	24.8	4
0	44596	24.8	4
0	44597	24.8	4
0	44598	24.8	4
0	44599	24.8	4
0	44600	24.8	4
0	44601	24.8	4
0	44602	24.8	4
0	44710	24.85	4
0	44711	24.85	4
0	44712	24.85	4
0	44713	24.85	4
0	44714	24.85	4
0	44801	24.9	4
0	44802	24.9	4
0	44803	24.9	4
0	44804	24.9	4
0	44805	24.9	4
0	44806	24.9	4
0	44807	24.9	4
0	44808	24.9	4
0	44809	24.9	4
0	44810	24.9	4
0	44861	24.95	4
0	44862	24.95	4
0	44863	24.95	4
0	44864	24.95	4
0	44865	24.95	4
0	44906	25	4
0	44907	25	4
0	44908	25	4
0	44909	25	4
0	44910	25	4
0	44911	25	4
0	44912	25	4
0	44913	25	4
0	44914	25	4
0	44915	25	4
0	45023	25.05	4
0	45024	25.05	4
0	45025	25.05	4
0	45026	25.05	4
0	45027	25.05	4
0	45073	25.1	4
0	45074	25.1	4
0	45075	25.1	4
0	45076	25.1	4
0	45077	25.1	4
0	45078	25.1	4
0	45079	25.1	4
0	45080	25.1	4
0	45081	25.1	4
0	45082	25.1	4
0	45162	25.15	4
0	45163	25.15	4
0	45164	25.15	4
0	45165	25.15	4
0	45166	25.15	4
0	45230	25.2	4
0	45231	25.2	4
0	45232	25.2	4
0	45233	25.2	4
0	45234	25.2	4
0	45235	25.2	4
0	45236	25.2	4
0	45237	25.2	4
0	45238	25.2	4
0	45239	25.2	4
0	45290	25.25	4
0	45291	25.25	4
0	45292	25.25	4
0	45293	25.25	4
0	45294	25.25	4
0	45358	25.3	4
0	45359	25.3	4
0	45360	25.3	4
0	45361	25.3	4
0	45362	25.3	4
0	45363	25.3	4
0	45364	25.3	4
0	45365	25.3	4
0	45366	25.3	4
0	45367	25.3	4
0	45545	25.35	4
0	45546	25.35	4
0	45547	25.35	4
0	45548	25.35	4
0	45549	25.35	4
0	45731	25.4	4
0	45732	25.4	4
0	45733	25.4	4
0	45734	25.4	4
0	45735	25.4	4
0	45736	25.4	4
0	45737	25.4	4
0	45738	25.4	4
0	45739	25.4	4
0	45740	25.4	4
0	45837	25.45	4
0	45838	25.45	4
0	45839	25.45	4
0	45840	25.45	4
0	45841	25.45	4
0	45882	25.5	4
0	45883	25.5	4
0	45884	25.5	4
0	45885	25.5	4
0	45886	25.5	4
0	45887	25.5	4
0	45888	25.5	4
0	45889	25.5	4
0	45890	25.5	4
0	45891	25.5	4
0	45942	25.55	4
0	45943	25.55	4
0	45944	25.55	4
0	45945	25.55	4
0	45946	25.55	4
0	46050	25.6	4
0	46051	25.6	4
0	46052	25.6	4
0	46053	25.6	4
0	46054	25.6	4
0	46055	25.6	4
0	46056	25.6	4
0	46057	25.6	4
0	46058	25.6	4
0	46059	25.6	4
0	46110	25.65	4
0	46111	25.65	4
0	46112	25.65	4
0	46113	25.65	4
0	46114	25.65	4
0	46178	25.7	4
0	46179	25.7	4
0	46180	25.7	4
0	46181	25.7	4
0	46182	25.7	4
0	46183	25.7	4
0	46184	25.7	4
0	46185	25.7	4
0	46186	25.7	4
0	46187	25.7	4
0	46261	25.75	4
0	46262	25.75	4
0	46263	25.75	4
0	46264	25.75	4
0	46265	25.75	4
0	46306	25.8	4
0	46307	25.8	4
0	46308	25.8	4
0	46309	25.8	4
0	46310	25.8	4
0	46311	25.8	4
0	46312	25.8	4
0	46313	25.8	4
0	46314	25.8	4
0	46315	25.8	4
0	46389	25.85	4
0	46390	25.85	4
0	46391	25.85	4
0	46392	25.85	4
0	46393	25.85	4
0	46561	25.9	4
0	46562	25.9	4
0	46563	25.9	4
0	46564	25.9	4
0	46565	25.9	4
0	46566	25.9	4
0	46567	25.9	4
0	46568	25.9	4
0	46569	25.9	4
0	46570	25.9	4
0	46678	25.95	4
0	46679	25.95	4
0	46680	25.95	4
0	46681	25.95	4
0	46682	25.95	4
0	46763	26	4
0	46764	26	4
0	46765	26	4
0	46766	26	4
0	46767	26	4
0	46768	26	4
0	46769	26	4
0	46770	26	4
0	46771	26	4
0	46772	26	4
0	46846	26.05	4
0	46847	26.05	4
0	46848	26.05	4
0	46849	26.05	4
0	46850	26.05	4
0	46896	26.1	4
0	46897	26.1	4
0	46898	26.1	4
0	46899	26.1	4
0	46900	26.1	4
0	46901	26.1	4
0	46902	26.1	4
0	46903	26.1	4
0	46904	26.1	4
0	46905	26.1	4
0	47013	26.15	4
0	47014	26.15	4
0	47015	26.15	4
0	47016	26.15	4
0	47017	26.15	4
0	47086	26.2	4
0	47087	26.2	4
0	47088	26.2	4
0	47089	26.2	4
0	47090	26.2	4
0	47091	26.2	4
0	47092	26.2	4
0	47093	26.2	4
0	47094	26.2	4
0	47095	26.2	4
0	47169	26.25	4
0	47170	26.25	4
0	47171	26.25	4
0	47172	26.25	4
0	47173	26.25	4
0	47214	26.3	4
0	47215	26.3	4
0	47216	26.3	4
0	47217	26.3	4
0	47218	26.3	4
0	47219	26.3	4
0	47220	26.3	4
0	47221	26.3	4
0	47222	26.3	4
0	47223	26.3	4
0	47279	26.35	4
0	47280	26.35	4
0	47281	26.35	4
0	47282	26.35	4
0	47283	26.35	4
0	47347	26.4	4
0	47348	26.4	4
0	47349	26.4	4
0	47350	26.4	4
0	47351	26.4	4
0	47352	26.4	4
0	47353	26.4	4
0	47354	26.4	4
0	47355	26.4	4
0	47356	26.4	4
0	47534	26.45	4
0	47535	26.45	4
0	47536	26.45	4
0	47537	26.45	4
0	47538	26.45	4
0	47720	26.5	4
0	47721	26.5	4
0	47722	26.5	4
0	47723	26.5	4
0	47724	26.5	4
0	47725	26.5	4
0	47726	26.5	4
0	47727	26.5	4
0	47728	26.5	4
0	47729	26.5	4
0	47808	26.55	4
0	47809	26.55	4
0	47810	26.55	4
0	47811	26.55	4
0	47812	26.55	4
0	47853	26.6	4
0	47854	26.6	4
0	47855	26.6	4
0	47856	26.6	4
0	47857	26.6	4
0	47858	26.6	4
0	47859	26.6	4
0	47860	26.6	4
0	47861	26.6	4
0	47862	26.6	4
0	47913	26.65	4
0	47914	26.65	4
0	47915	26.65	4
0	47916	26.65	4
0	47917	26.65	4
0	47981	26.7	4
0	47982	26.7	4
0	47983	26.7	4
0	47984	26.7	4
0	47985	26.7	4
0	47986	26.7	4
0	47987	26.7	4
0	47988	26.7	4
0	47989	26.7	4
0	47990	26.7	4
0	48041	26.75	4
0	48042	26.75	4
0	48043	26.75	4
0	48044	26.75	4
0	48045	26.75	4
0	48109	26.8	4
0	48110	26.8	4
0	48111	26.8	4
0	48112	26.8	4
0	48113	26.8	4
0	48114	26.8	4
0	48115	26.8	4
0	48116	26.8	4
0	48117	26.8	4
0	48118	26.8	4
0	48169	26.85	4
0	48170	26.85	4
0	48171	26.85	4
0	48172	26.85	4
0	48173	26.85	4
0	48214	26.9	4
0	48215	26.9	4
0	48216	26.9	4
0	48217	26.9	4
0	48218	26.9	4
0	48219	26.9	4
0	48220	26.9	4
0	48221	26.9	4
0	48222	26.9	4
0	48223	26.9	4
0	48297	26.95	4
0	48298	26.95	4
0	48299	26.95	4
0	48300	26.95	4
0	48301	26.95	4
0	48474	27	4
0	48475	27	4
0	48476	27	4
0	48477	27	4
0	48478	27	4
0	48479	27	4
0	48480	27	4
0	48481	27	4
0	48482	27	4
0	48483	27	4
0	48591	27.05	4
0	48592	27.05	4
0	48593	27.05	4
0	48594	27.05	4
0	48595	27.05	4
0	48664	27.1	4
0	48665	27.1	4
0	48666	27.1	4
0	48667	27.1	4
0	48668	27.1	4
0	48669	27.1	4
0	48670	27.1	4
0	48671	27.1	4
0	48672	27.1	4
0	48673	27.1	4
0	48730	27.15	4
0	48731	27.15	4
0	48732	27.15	4
0	48733	27.15	4
0	48734	27.15	4
0	48775	27.2	4
0	48776	27.2	4
0	48777	27.2	4
0	48778	27.2	4
0	48779	27.2	4
0	48780	27.2	4
0	48781	27.2	4
0	48782	27.2	4
0	48783	27.2	4
0	48784	27.2	4
0	48858	27.25	4
0	48859	27.25	4
0	48860	27.25	4
0	48861	27.25	4
0	48862	27.25	4
0	48903	27.3	4
0	48904	27.3	4
0	48905	27.3	4
0	48906	27.3	4
0	48907	27.3	4
0	48908	27.3	4
0	48909	27.3	4
0	48910	27.3	4
0	48911	27.3	4
0	48912	27.3	4
0	49009	27.35	4
0	49010	27.35	4
0	49011	27.35	4
0	49012	27.35	4
0	49013	27.35	4
0	49054	27.4	4
0	49055	27.4	4
0	49056	27.4	4
0	49057	27.4	4
0	49058	27.4	4
0	49059	27.4	4
0	49060	27.4	4
0	49061	27.4	4
0	49062	27.4	4
0	49063	27.4	4
0	49114	27.45	4
0	49115	27.45	4
0	49116	27.45	4
0	49117	27.45	4
0	49118	27.45	4
0	49205	27.5	4
0	49206	27.5	4
0	49207	27.5	4
0	49208	27.5	4
0	49209	27.5	4
0	49210	27.5	4
0	49211	27.5	4
0	49212	27.5	4
0	49213	27.5	4
0	49214	27.5	4
0	49392	27.55	4
0	49393	27.55	4
0	49394	27.55	4
0	49395	27.55	4
0	49396	27.55	4
0	49578	27.6	4
0	49579	27.6	4
0	49580	27.6	4
0	49581	27.6	4
0	49582	27.6	4
0	49583	27.6	4
0	49584	27.6	4
0	49585	27.6	4
0	49586	27.6	4
0	49587	27.6	4
0	49684	27.65	4
0	49685	27.65	4
0	49686	27.65	4
0	49687	27.65	4
0	49688	27.65	4
0	49729	27.7	4
0	49730	27.7	4
0	49731	27.7	4
0	49732	27.7	4
0	49733	27.7	4
0	49734	27.7	4
0	49735	27.7	4
0	49736	27.7	4
0	49737	27.7	4
0	49738	27.7	4
0	49812	27.75	4
0	49813	27.75	4
0	49814	27.75	4
0	49815	27.75	4
0	49816	27.75	4
0	49926	27.8	4
0	49927	27.8	4
0	49928	27.8	4
0	49929	27.8	4
0	49930	27.8	4
0	49931	27.8	4
0	49932	27.8	4
0	49933	27.8	4
0	49934	27.8	4
0	49935	27.8	4
0	49986	27.85	4
0	49987	27.85	4
0	49988	27.85	4
0	49989	27.85	4
0	49990	27.85	4
0	50100	27.9	4
0	50101	27.9	4
0	50102	27.9	4
0	50103	27.9	4
0	50104	27.9	4
0	50105	27.9	4
0	50106	27.9	4
0	50107	27.9	4
0	50108	27.9	4
0	50109	27.9	4
0	50165	27.95	4
0	50166	27.95	4
0	50167	27.95	4
0	50168	27.95	4
0	50169	27.95	4
0	50210	28	4
0	50211	28	4
0	50212	28	4
0	50213	28	4
0	50214	28	4
0	50215	28	4
0	50216	28	4
0	50217	28	4
0	50218	28	4
0	50219	28	4
0	50316	28.05	4
0	50317	28.05	4
0	50318	28.05	4
0	50319	28.05	4
0	50320	28.05	4
0	50493	28.1	4
0	50494	28.1	4
0	50495	28.1	4
0	50496	28.1	4
0	50497	28.1	4
0	50498	28.1	4
0	50499	28.1	4
0	50500	28.1	4
0	50501	28.1	4
0	50502	28.1	4
0	50700	28.15	4
0	50701	28.15	4
0	50702	28.15	4
0	50703	28.15	4
0	50704	28.15	4
0	50791	28.2	4
0	50792	28.2	4
0	50793	28.2	4
0	50794	28.2	4
0	50795	28.2	4
0	50796	28.2	4
0	50797	28.2	4
0	50798	28.2	4
0	50799	28.2	4
0	50800	28.2	4
0	50851	28.25	4
0	50852	28.25	4
0	50853	28.25	4
0	50854	28.25	4
0	50855	28.25	4
0	50919	28.3	4
0	50920	28.3	4
0	50921	28.3	4
0	50922	28.3	4
0	50923	28.3	4
0	50924	28.3	4
0	50925	28.3	4
0	50926	28.3	4
0	50927	28.3	4
0	50928	28.3	4
0	51025	28.35	4
0	51026	28.35	4
0	51027	28.35	4
0	51028	28.35	4
0	51029	28.35	4
0	51070	28.4	4
0	51071	28.4	4
0	51072	28.4	4
0	51073	28.4	4
0	51074	28.4	4
0	51075	28.4	4
0	51076	28.4	4
0	51077	28.4	4
0	51078	28.4	4
0	51079	28.4	4
0	51199	28.45	4
0	51200	28.45	4
0	51201	28.45	4
0	51202	28.45	4
0	51203	28.45	4
0	51244	28.5	4
0	51245	28.5	4
0	51246	28.5	4
0	51247	28.5	4
0	51248	28.5	4
0	51249	28.5	4
0	51250	28.5	4
0	51251	28.5	4
0	51252	28.5	4
0	51253	28.5	4
0	51304	28.55	4
0	51305	28.55	4
0	51306	28.55	4
0	51307	28.55	4
0	51308	28.55	4
0	51389	28.6	4
0	51390	28.6	4
0	51391	28.6	4
0	51392	28.6	4
0	51393	28.6	4
0	51394	28.6	4
0	51395	28.6	4
0	51396	28.6	4
0	51397	28.6	4
0	51398	28.6	4
0	51576	28.65	4
0	51577	28.65	4
0	51578	28.65	4
0	51579	28.65	4
0	51580	28.65	4
0	51678	28.7	4
0	51679	28.7	4
0	51680	28.7	4
0	51681	28.7	4
0	51682	28.7	4
0	51683	28.7	4
0	51684	28.7	4
0	51685	28.7	4
0	51686	28.7	4
0	51687	28.7	4
0	51784	28.75	4
0	51785	28.75	4
0	51786	28.75	4
0	51787	28.75	4
0	51788	28.75	4
0	51829	28.8	4
0	51830	28.8	4
0	51831	28.8	4
0	51832	28.8	4
0	51833	28.8	4
0	51834	28.8	4
0	51835	28.8	4
0	51836	28.8	4
0	51837	28.8	4
0	51838	28.8	4
0	51912	28.85	4
0	51913	28.85	4
0	51914	28.85	4
0	51915	28.85	4
0	51916	28.85	4
0	52003	28.9	4
0	52004	28.9	4
0	52005	28.9	4
0	52006	28.9	4
0	52007	28.9	4
0	52008	28.9	4
0	52009	28.9	4
0	52010	28.9	4
0	52011	28.9	4
0	52012	28.9	4
0	52063	28.95	4
0	52064	28.95	4
0	52065	28.95	4
0	52066	28.95	4
0	52067	28.95	4
0	52141	29	4
0	52142	29	4
0	52143	29	4
0	52144	29	4
0	52145	29	4
0	52146	29	4
0	52147	29	4
0	52148	29	4
0	52149	29	4
0	52150	29	4
0	52201	29.05	4
0	52202	29.05	4
0	52203	29.05	4
0	52204	29.05	4
0	52205	29.05	4
0	52251	29.1	4
0	52252	29.1	4
0	52253	29.1	4
0	52254	29.1	4
0	52255	29.1	4
0	52256	29.1	4
0	52257	29.1	4
0	52258	29.1	4
0	52259	29.1	4
0	52260	29.1	4
0	52340	29.15	4
0	52341	29.15	4
0	52342	29.15	4
0	52343	29.15	4
0	52344	29.15	4
0	52512	29.2	4
0	52513	29.2	4
0	52514	29.2	4
0	52515	29.2	4
0	52516	29.2	4
0	52517	29.2	4
0	52518	29.2	4
0	52519	29.2	4
0	52520	29.2	4
0	52521	29.2	4
0	52713	29.25	4
0	52714	29.25	4
0	52715	29.25	4
0	52716	29.25	4
0	52717	29.25	4
0	52804	29.3	4
0	52805	29.3	4
0	52806	29.3	4
0	52807	29.3	4
0	52808	29.3	4
0	52809	29.3	4
0	52810	29.3	4
0	52811	29.3	4
0	52812	29.3	4
0	52813	29.3	4
0	52864	29.35	4
0	52865	29.35	4
0	52866	29.35	4
0	52867	29.35	4
0	52868	29.35	4
0	52914	29.4	4
0	52915	29.4	4
0	52916	29.4	4
0	52917	29.4	4
0	52918	29.4	4
0	52919	29.4	4
0	52920	29.4	4
0	52921	29.4	4
0	52922	29.4	4
0	52923	29.4	4
0	53020	29.45	4
0	53021	29.45	4
0	53022	29.45	4
0	53023	29.45	4
0	53024	29.45	4
0	53065	29.5	4
0	53066	29.5	4
0	53067	29.5	4
0	53068	29.5	4
0	53069	29.5	4
0	53070	29.5	4
0	53071	29.5	4
0	53072	29.5	4
0	53073	29.5	4
0	53074	29.5	4
0	53171	29.55	4
0	53172	29.55	4
0	53173	29.55	4
0	53174	29.55	4
0	53175	29.55	4
0	53216	29.6	4
0	53217	29.6	4
0	53218	29.6	4
0	53219	29.6	4
0	53220	29.6	4
0	53221	29.6	4
0	53222	29.6	4
0	53223	29.6	4
0	53224	29.6	4
0	53225	29.6	4
0	53276	29.65	4
0	53277	29.65	4
0	53278	29.65	4
0	53279	29.65	4
0	53280	29.65	4
0	53344	29.7	4
0	53345	29.7	4
0	53346	29.7	4
0	53347	29.7	4
0	53348	29.7	4
0	53349	29.7	4
0	53350	29.7	4
0	53351	29.7	4
0	53352	29.7	4
0	53353	29.7	4
0	53531	29.75	4
0	53532	29.75	4
0	53533	29.75	4
0	53534	29.75	4
0	53535	29.75	4
0	53633	29.8	4
0	53634	29.8	4
0	53635	29.8	4
0	53636	29.8	4
0	53637	29.8	4
0	53638	29.8	4
0	53639	29.8	4
0	53640	29.8	4
0	53641	29.8	4
0	53642	29.8	4
0	53739	29.85	4
0	53740	29.85	4
0	53741	29.85	4
0	53742	29.85	4
0	53743	29.85	4
0	53784	29.9	4
0	53785	29.9	4
0	53786	29.9	4
0	53787	29.9	4
0	53788	29.9	4
0	53789	29.9	4
0	53790	29.9	4
0	53791	29.9	4
0	53792	29.9	4
0	53793	29.9	4
0	53849	29.95	4
0	53850	29.95	4
0	53851	29.95	4
0	53852	29.95	4
0	53853	29.95	4
0	53940	30	4
0	53941	30	4
0	53942	30	4
0	53943	30	4
0	53944	30	4
0	53945	30	4
0	53946	30	4
0	53947	30	4
0	53948	30	4
0	53949	30	4
0	54000	30.05	4
0	54001	30.05	4
0	54002	30.05	4
0	54003	30.05	4
0	54004	30.05	4
0	54073	30.1	4
0	54074	30.1	4
0	54075	30.1	4
0	54076	30.1	4
0	54077	30.1	4
0	54078	30.1	4
0	54079	30.1	4
0	54080	30.1	4
0	54081	30.1	4
0	54082	30.1	4
0	54139	30.15	4
0	54140	30.15	4
0	54141	30.15	4
0	54142	30.15	4
0	54143	30.15	4
0	54207	30.2	4
0	54208	30.2	4
0	54209	30.2	4
0	54210	30.2	4
0	54211	30.2	4
0	54212	30.2	4
0	54213	30.2	4
0	54214	30.2	4
0	54215	30.2	4
0	54216	30.2	4
0	54290	30.25	4
0	54291	30.25	4
0	54292	30.25	4
0	54293	30.25	4
0	54294	30.25	4
0	54462	30.3	4
0	54463	30.3	4
0	54464	30.3	4
0	54465	30.3	4
0	54466	30.3	4
0	54467	30.3	4
0	54468	30.3	4
0	54469	30.3	4
0	54470	30.3	4
0	54471	30.3	4
0	54668	30.35	4
0	54669	30.35	4
0	54670	30.35	4
0	54671	30.35	4
0	54672	30.35	4
0	54753	30.4	4
0	54754	30.4	4
0	54755	30.4	4
0	54756	30.4	4
0	54757	30.4	4
0	54758	30.4	4
0	54759	30.4	4
0	54760	30.4	4
0	54761	30.4	4
0	54762	30.4	4
0	54836	30.45	4
0	54837	30.45	4
0	54838	30.45	4
0	54839	30.45	4
0	54840	30.45	4
0	54881	30.5	4
0	54882	30.5	4
0	54883	30.5	4
0	54884	30.5	4
0	54885	30.5	4
0	54886	30.5	4
0	54887	30.5	4
0	54888	30.5	4
0	54889	30.5	4
0	54890	30.5	4
0	54987	30.55	4
0	54988	30.55	4
0	54989	30.55	4
0	54990	30.55	4
0	54991	30.55	4
0	55055	30.6	4
0	55056	30.6	4
0	55057	30.6	4
0	55058	30.6	4
0	55059	30.6	4
0	55060	30.6	4
0	55061	30.6	4
0	55062	30.6	4
0	55063	30.6	4
0	55064	30.6	4
0	55138	30.65	4
0	55139	30.65	4
0	55140	30.65	4
0	55141	30.65	4
0	55142	30.65	4
0	55183	30.7	4
0	55184	30.7	4
0	55185	30.7	4
0	55186	30.7	4
0	55187	30.7	4
0	55188	30.7	4
0	55189	30.7	4
0	55190	30.7	4
0	55191	30.7	4
0	55192	30.7	4
0	55243	30.75	4
0	55244	30.75	4
0	55245	30.75	4
0	55246	30.75	4
0	55247	30.75	4
0	55311	30.8	4
0	55312	30.8	4
0	55313	30.8	4
0	55314	30.8	4
0	55315	30.8	4
0	55316	30.8	4
0	55317	30.8	4
0	55318	30.8	4
0	55319	30.8	4
0	55320	30.8	4
0	55498	30.85	4
0	55499	30.85	4
0	55500	30.85	4
0	55501	30.85	4
0	55502	30.85	4
0	55600	30.9	4
0	55601	30.9	4
0	55602	30.9	4
0	55603	30.9	4
0	55604	30.9	4
0	55605	30.9	4
0	55606	30.9	4
0	55607	30.9	4
0	55608	30.9	4
0	55609	30.9	4
0	55706	30.95	4
0	55707	30.95	4
0	55708	30.95	4
0	55709	30.95	4
0	55710	30.95	4
0	55774	31	4
0	55775	31	4
0	55776	31	4
0	55777	31	4
0	55778	31	4
0	55779	31	4
0	55780	31	4
0	55781	31	4
0	55782	31	4
0	55783	31	4
0	55834	31.05	4
0	55835	31.05	4
0	55836	31.05	4
0	55837	31.05	4
0	55838	31.05	4
0	55930	31.1	4
0	55931	31.1	4
0	55932	31.1	4
0	55933	31.1	4
0	55934	31.1	4
0	55935	31.1	4
0	55936	31.1	4
0	55937	31.1	4
0	55938	31.1	4
0	55939	31.1	4
0	56024	31.15	4
0	56025	31.15	4
0	56026	31.15	4
0	56027	31.15	4
0	56028	31.15	4
0	56092	31.2	4
0	56093	31.2	4
0	56094	31.2	4
0	56095	31.2	4
0	56096	31.2	4
0	56097	31.2	4
0	56098	31.2	4
0	56099	31.2	4
0	56100	31.2	4
0	56101	31.2	4
0	56152	31.25	4
0	56153	31.25	4
0	56154	31.25	4
0	56155	31.25	4
0	56156	31.25	4
0	56197	31.3	4
0	56198	31.3	4
0	56199	31.3	4
0	56200	31.3	4
0	56201	31.3	4
0	56202	31.3	4
0	56203	31.3	4
0	56204	31.3	4
0	56205	31.3	4
0	56206	31.3	4
0	56280	31.35	4
0	56281	31.35	4
0	56282	31.35	4
0	56283	31.35	4
0	56284	31.35	4
0	56452	31.4	4
0	56453	31.4	4
0	56454	31.4	4
0	56455	31.4	4
0	56456	31.4	4
0	56457	31.4	4
0	56458	31.4	4
0	56459	31.4	4
0	56460	31.4	4
0	56461	31.4	4
0	56653	31.45	4
0	56654	31.45	4
0	56655	31.45	4
0	56656	31.45	4
0	56657	31.45	4
0	56744	31.5	4
0	56745	31.5	4
0	56746	31.5	4
0	56747	31.5	4
0	56748	31.5	4
0	56749	31.5	4
0	56750	31.5	4
0	56751	31.5	4
0	56752	31.5	4
0	56753	31.5	4
0	56844	31.55	4
0	56845	31.55	4
0	56846	31.55	4
0	56847	31.55	4
0	56848	31.55	4
0	56889	31.6	4
0	56890	31.6	4
0	56891	31.6	4
0	56892	31.6	4
0	56893	31.6	4
0	56894	31.6	4
0	56895	31.6	4
0	56896	31.6	4
0	56897	31.6	4
0	56898	31.6	4
0	56995	31.65	4
0	56996	31.65	4
0	56997	31.65	4
0	56998	31.65	4
0	56999	31.65	4
0	57068	31.7	4
0	57069	31.7	4
0	57070	31.7	4
0	57071	31.7	4
0	57072	31.7	4
0	57073	31.7	4
0	57074	31.7	4
0	57075	31.7	4
0	57076	31.7	4
0	57077	31.7	4
0	57151	31.75	4
0	57152	31.75	4
0	57153	31.75	4
0	57154	31.75	4
0	57155	31.75	4
0	57219	31.8	4
0	57220	31.8	4
0	57221	31.8	4
0	57222	31.8	4
0	57223	31.8	4
0	57224	31.8	4
0	57225	31.8	4
0	57226	31.8	4
0	57227	31.8	4
0	57228	31.8	4
0	57279	31.85	4
0	57280	31.85	4
0	57281	31.85	4
0	57282	31.85	4
0	57283	31.85	4
0	57347	31.9	4
0	57348	31.9	4
0	57349	31.9	4
0	57350	31.9	4
0	57351	31.9	4
0	57352	31.9	4
0	57353	31.9	4
0	57354	31.9	4
0	57355	31.9	4
0	57356	31.9	4
0	57557	31.95	4
0	57558	31.95	4
0	57559	31.95	4
0	57560	31.95	4
0	57561	31.95	4
0	57664	32	4
0	57665	32	4
0	57666	32	4
0	57667	32	4
0	57668	32	4
0	57669	32	4
0	57670	32	4
0	57671	32	4
0	57672	32	4
0	57673	32	4
0	57770	32.05	4
0	57771	32.05	4
0	57772	32.05	4
0	57773	32.05	4
0	57774	32.05	4
0	57843	32.1	4
0	57844	32.1	4
0	57845	32.1	4
0	57846	32.1	4
0	57847	32.1	4
0	57848	32.1	4
0	57849	32.1	4
0	57850	32.1	4
0	57851	32.1	4
0	57852	32.1	4
0	57909	32.15	4
0	57910	32.15	4
0	57911	32.15	4
0	57912	32.15	4
0	57913	32.15	4
0	57994	32.2	4
0	57995	32.2	4
0	57996	32.2	4
0	57997	32.2	4
0	57998	32.2	4
0	57999	32.2	4
0	58000	32.2	4
0	58001	32.2	4
0	58002	32.2	4
0	58003	32.2	4
0	58077	32.25	4
0	58078	32.25	4
0	58079	32.25	4
0	58080	32.25	4
0	58081	32.25	4
0	58145	32.3	4
0	58146	32.3	4
0	58147	32.3	4
0	58148	32.3	4
0	58149	32.3	4
0	58150	32.3	4
0	58151	32.3	4
0	58152	32.3	4
0	58153	32.3	4
0	58154	32.3	4
0	58228	32.35	4
0	58229	32.35	4
0	58230	32.35	4
0	58231	32.35	4
0	58232	32.35	4
0	58273	32.4	4
0	58274	32.4	4
0	58275	32.4	4
0	58276	32.4	4
0	58277	32.4	4
0	58278	32.4	4
0	58279	32.4	4
0	58280	32.4	4
0	58281	32.4	4
0	58282	32.4	4
0	58338	32.45	4
0	58339	32.45	4
0	58340	32.45	4
0	58341	32.45	4
0	58342	32.45	4
0	58533	32.5	4
0	58534	32.5	4
0	58535	32.5	4
0	58536	32.5	4
0	58537	32.5	4
0	58538	32.5	4
0	58539	32.5	4
0	58540	32.5	4
0	58541	32.5	4
0	58542	32.5	4
0	58734	32.55	4
0	58735	32.55	4
0	58736	32.55	4
0	58737	32.55	4
0	58738	32.55	4
0	58825	32.6	4
0	58826	32.6	4
0	58827	32.6	4
0	58828	32.6	4
0	58829	32.6	4
0	58830	32.6	4
0	58831	32.6	4
0	58832	32.6	4
0	58833	32.6	4
0	58834	32.6	4
0	58908	32.65	4
0	58909	32.65	4
0	58910	32.65	4
0	58911	32.65	4
0	58912	32.65	4
0	58953	32.7	4
0	58954	32.7	4
0	58955	32.7	4
0	58956	32.7	4
0	58957	32.7	4
0	58958	32.7	4
0	58959	32.7	4
0	58960	32.7	4
0	58961	32.7	4
0	58962	32.7	4
0	59053	32.75	4
0	59054	32.75	4
0	59055	32.75	4
0	59056	32.75	4
0	59057	32.75	4
0	59121	32.8	4
0	59122	32.8	4
0	59123	32.8	4
0	59124	32.8	4
0	59125	32.8	4
0	59126	32.8	4
0	59127	32.8	4
0	59128	32.8	4
0	59129	32.8	4
0	59130	32.8	4
0	59181	32.85	4
0	59182	32.85	4
0	59183	32.85	4
0	59184	32.85	4
0	59185	32.85	4
0	59231	32.9	4
0	59232	32.9	4
0	59233	32.9	4
0	59234	32.9	4
0	59235	32.9	4
0	59236	32.9	4
0	59237	32.9	4
0	59238	32.9	4
0	59239	32.9	4
0	59240	32.9	4
0	59291	32.95	4
0	59292	32.95	4
0	59293	32.95	4
0	59294	32.95	4
0	59295	32.95	4
0	59336	33	4
0	59337	33	4
0	59338	33	4
0	59339	33	4
0	59340	33	4
0	59341	33	4
0	59342	33	4
0	59343	33	4
0	59344	33	4
0	59345	33	4
0	59523	33.05	4
0	59524	33.05	4
0	59525	33.05	4
0	59526	33.05	4
0	59527	33.05	4
0	59630	33.1	4
0	59631	33.1	4
0	59632	33.1	4
0	59633	33.1	4
0	59634	33.1	4
0	59635	33.1	4
0	59636	33.1	4
0	59637	33.1	4
0	59638	33.1	4
0	59639	33.1	4
0	59741	33.15	4
0	59742	33.15	4
0	59743	33.15	4
0	59744	33.15	4
0	59745	33.15	4
0	59809	33.2	4
0	59810	33.2	4
0	59811	33.2	4
0	59812	33.2	4
0	59813	33.2	4
0	59814	33.2	4
0	59815	33.2	4
0	59816	33.2	4
0	59817	33.2	4
0	59818	33.2	4
0	59869	33.25	4
0	59870	33.25	4
0	59871	33.25	4
0	59872	33.25	4
0	59873	33.25	4
0	59977	33.3	4
0	59978	33.3	4
0	59979	33.3	4
0	59980	33.3	4
0	59981	33.3	4
0	59982	33.3	4
0	59983	33.3	4
0	59984	33.3	4
0	59985	33.3	4
0	59986	33.3	4
0	60054	33.35	4
0	60055	33.35	4
0	60056	33.35	4
0	60057	33.35	4
0	60058	33.35	4
0	60099	33.4	4
0	60100	33.4	4
0	60101	33.4	4
0	60102	33.4	4
0	60103	33.4	4
0	60104	33.4	4
0	60105	33.4	4
0	60106	33.4	4
0	60107	33.4	4
0	60108	33.4	4
0	60159	33.45	4
0	60160	33.45	4
0	60161	33.45	4
0	60162	33.45	4
0	60163	33.45	4
0	60204	33.5	4
0	60205	33.5	4
0	60206	33.5	4
0	60207	33.5	4
0	60208	33.5	4
0	60209	33.5	4
0	60210	33.5	4
0	60211	33.5	4
0	60212	33.5	4
0	60213	33.5	4
0	60264	33.55	4
0	60265	33.55	4
0	60266	33.55	4
0	60267	33.55	4
0	60268	33.55	4
0	60436	33.6	4
0	60437	33.6	4
0	60438	33.6	4
0	60439	33.6	4
0	60440	33.6	4
0	60441	33.6	4
0	60442	33.6	4
0	60443	33.6	4
0	60444	33.6	4
0	60445	33.6	4
0	60637	33.65	4
0	60638	33.65	4
0	60639	33.65	4
0	60640	33.65	4
0	60641	33.65	4
0	60733	33.7	4
0	60734	33.7	4
0	60735	33.7	4
0	60736	33.7	4
0	60737	33.7	4
0	60738	33.7	4
0	60739	33.7	4
0	60740	33.7	4
0	60741	33.7	4
0	60742	33.7	4
0	60816	33.75	4
0	60817	33.75	4
0	60818	33.75	4
0	60819	33.75	4
0	60820	33.75	4
0	60861	33.8	4
0	60862	33.8	4
0	60863	33.8	4
0	60864	33.8	4
0	60865	33.8	4
0	60866	33.8	4
0	60867	33.8	4
0	60868	33.8	4
0	60869	33.8	4
0	60870	33.8	4
0	60967	33.85	4
0	60968	33.85	4
0	60969	33.85	4
0	60970	33.85	4
0	60971	33.85	4
0	61058	33.9	4
0	61059	33.9	4
0	61060	33.9	4
0	61061	33.9	4
0	61062	33.9	4
0	61063	33.9	4
0	61064	33.9	4
0	61065	33.9	4
0	61066	33.9	4
0	61067	33.9	4
0	61118	33.95	4
0	61119	33.95	4
0	61120	33.95	4
0	61121	33.95	4
0	61122	33.95	4
0	61163	34	4
0	61164	34	4
0	61165	34	4
0	61166	34	4
0	61167	34	4
0	61168	34	4
0	61169	34	4
0	61170	34	4
0	61171	34	4
0	61172	34	4
0	61246	34.05	4
0	61247	34.05	4
0	61248	34.05	4
0	61249	34.05	4
0	61250	34.05	4
0	61319	34.1	4
0	61320	34.1	4
0	61321	34.1	4
0	61322	34.1	4
0	61323	34.1	4
0	61324	34.1	4
0	61325	34.1	4
0	61326	34.1	4
0	61327	34.1	4
0	61328	34.1	4
0	61512	34.15	4
0	61513	34.15	4
0	61514	34.15	4
0	61515	34.15	4
0	61516	34.15	4
0	61698	34.2	4
0	61699	34.2	4
0	61700	34.2	4
0	61701	34.2	4
0	61702	34.2	4
0	61703	34.2	4
0	61704	34.2	4
0	61705	34.2	4
0	61706	34.2	4
0	61707	34.2	4
0	61809	34.25	4
0	61810	34.25	4
0	61811	34.25	4
0	61812	34.25	4
0	61813	34.25	4
0	61877	34.3	4
0	61878	34.3	4
0	61879	34.3	4
0	61880	34.3	4
0	61881	34.3	4
0	61882	34.3	4
0	61883	34.3	4
0	61884	34.3	4
0	61885	34.3	4
0	61886	34.3	4
0	61937	34.35	4
0	61938	34.35	4
0	61939	34.35	4
0	61940	34.35	4
0	61941	34.35	4
0	62028	34.4	4
0	62029	34.4	4
0	62030	34.4	4
0	62031	34.4	4
0	62032	34.4	4
0	62033	34.4	4
0	62034	34.4	4
0	62035	34.4	4
0	62036	34.4	4
0	62037	34.4	4
0	62134	34.45	4
0	62135	34.45	4
0	62136	34.45	4
0	62137	34.45	4
0	62138	34.45	4
0	62179	34.5	4
0	62180	34.5	4
0	62181	34.5	4
0	62182	34.5	4
0	62183	34.5	4
0	62184	34.5	4
0	62185	34.5	4
0	62186	34.5	4
0	62187	34.5	4
0	62188	34.5	4
0	62239	34.55	4
0	62240	34.55	4
0	62241	34.55	4
0	62242	34.55	4
0	62243	34.55	4
0	62301	34.6	4
0	62302	34.6	4
0	62303	34.6	4
0	62304	34.6	4
0	62305	34.6	4
0	62306	34.6	4
0	62307	34.6	4
0	62308	34.6	4
0	62309	34.6	4
0	62310	34.6	4
0	62361	34.65	4
0	62362	34.65	4
0	62363	34.65	4
0	62364	34.65	4
0	62365	34.65	4
0	62533	34.7	4
0	62534	34.7	4
0	62535	34.7	4
0	62536	34.7	4
0	62537	34.7	4
[...]
0	340994	192.3	4
0	340995	192.3	4
0	340996	192.3	4
0	340997	192.3	4
0	340998	192.3	4
0	340999	192.3	4
0	341000	192.3	4
0	341001	192.3	4
0	341075	192.35	4
0	341076	192.35	4
0	341077	192.35	4
0	341078	192.35	4
0	341079	192.35	4
0	341166	192.4	4
0	341167	192.4	4
0	341168	192.4	4
0	341169	192.4	4
0	341170	192.4	4
0	341171	192.4	4
0	341172	192.4	4
0	341173	192.4	4
0	341174	192.4	4
0	341175	192.4	4
0	341226	192.45	4
0	341227	192.45	4
0	341228	192.45	4
0	341229	192.45	4
0	341230	192.45	4
0	341294	192.5	4
0	341295	192.5	4
0	341296	192.5	4
0	341297	192.5	4
0	341298	192.5	4
0	341299	192.5	4
0	341300	192.5	4
0	341301	192.5	4
0	341302	192.5	4
0	341303	192.5	4
0	341481	192.55	4
0	341482	192.55	4
0	341483	192.55	4
0	341484	192.55	4
0	341485	192.55	4
0	341583	192.6	4
0	341584	192.6	4
0	341585	192.6	4
0	341586	192.6	4
0	341587	192.6	4
0	341588	192.6	4
0	341589	192.6	4
0	341590	192.6	4
0	341591	192.6	4
0	341592	192.6	4
0	341666	192.65	4
0	341667	192.65	4
0	341668	192.65	4
0	341669	192.65	4
0	341670	192.65	4
0	341711	192.7	4
0	341712	192.7	4
0	341713	192.7	4
0	341714	192.7	4
0	341715	192.7	4
0	341716	192.7	4
0	341717	192.7	4
0	341718	192.7	4
0	341719	192.7	4
0	341720	192.7	4
0	341771	192.75	4
0	341772	192.75	4
0	341773	192.75	4
0	341774	192.75	4
0	341775	192.75	4
0	341885	192.8	4
0	341886	192.8	4
0	341887	192.8	4
0	341888	192.8	4
0	341889	192.8	4
0	341890	192.8	4
0	341891	192.8	4
0	341892	192.8	4
0	341893	192.8	4
0	341894	192.8	4
0	341945	192.85	4
0	341946	192.85	4
0	341947	192.85	4
0	341948	192.85	4
0	341949	192.85	4
0	342013	192.9	4
0	342014	192.9	4
0	342015	192.9	4
0	342016	192.9	4
0	342017	192.9	4
0	342018	192.9	4
0	342019	192.9	4
0	342020	192.9	4
0	342021	192.9	4
0	342022	192.9	4
0	342119	192.95	4
0	342120	192.95	4
0	342121	192.95	4
0	342122	192.95	4
0	342123	192.95	4
0	342164	193	4
0	342165	193	4
0	342166	193	4
0	342167	193	4
0	342168	193	4
0	342169	193	4
0	342170	193	4
0	342171	193	4
0	342172	193	4
0	342173	193	4
0	342247	193.05	4
0	342248	193.05	4
0	342249	193.05	4
0	342250	193.05	4
0	342251	193.05	4
0	342419	193.1	4
0	342420	193.1	4
0	342421	193.1	4
0	342422	193.1	4
0	342423	193.1	4
0	342424	193.1	4
0	342425	193.1	4
0	342426	193.1	4
0	342427	193.1	4
0	342428	193.1	4
0	342536	193.15	4
0	342537	193.15	4
0	342538	193.15	4
0	342539	193.15	4
0	342540	193.15	4
0	342609	193.2	4
0	342610	193.2	4
0	342611	193.2	4
0	342612	193.2	4
0	342613	193.2	4
0	342614	193.2	4
0	342615	193.2	4
0	342616	193.2	4
0	342617	193.2	4
0	342618	193.2	4
0	342669	193.25	4
0	342670	193.25	4
0	342671	193.25	4
0	342672	193.25	4
0	342673	193.25	4
0	342714	193.3	4
0	342715	193.3	4
0	342716	193.3	4
0	342717	193.3	4
0	342718	193.3	4
0	342719	193.3	4
0	342720	193.3	4
0	342721	193.3	4
0	342722	193.3	4
0	342723	193.3	4
0	342843	193.35	4
0	342844	193.35	4
0	342845	193.35	4
0	342846	193.35	4
0	342847	193.35	4
0	342888	193.4	4
0	342889	193.4	4
0	342890	193.4	4
0	342891	193.4	4
0	342892	193.4	4
0	342893	193.4	4
0	342894	193.4	4
0	342895	193.4	4
0	342896	193.4	4
0	342897	193.4	4
0	342971	193.45	4
0	342972	193.45	4
0	342973	193.45	4
0	342974	193.45	4
0	342975	193.45	4
0	343062	193.5	4
0	343063	193.5	4
0	343064	193.5	4
0	343065	193.5	4
0	343066	193.5	4
0	343067	193.5	4
0	343068	193.5	4
0	343069	193.5	4
0	343070	193.5	4
0	343071	193.5	4
0	343122	193.55	4
0	343123	193.55	4
0	343124	193.55	4
0	343125	193.55	4
0	343126	193.55	4
0	343190	193.6	4
0	343191	193.6	4
0	343192	193.6	4
0	343193	193.6	4
0	343194	193.6	4
0	343195	193.6	4
0	343196	193.6	4
0	343197	193.6	4
0	343198	193.6	4
0	343199	193.6	4
0	343400	193.65	4
0	343401	193.65	4
0	343402	193.65	4
0	343403	193.65	4
0	343404	193.65	4
0	343502	193.7	4
0	343503	193.7	4
0	343504	193.7	4
0	343505	193.7	4
0	343506	193.7	4
0	343507	193.7	4
0	343508	193.7	4
0	343509	193.7	4
0	343510	193.7	4
0	343511	193.7	4
0	343585	193.75	4
0	343586	193.75	4
0	343587	193.75	4
0	343588	193.75	4
0	343589	193.75	4
0	343635	193.8	4
0	343636	193.8	4
0	343637	193.8	4
0	343638	193.8	4
0	343639	193.8	4
0	343640	193.8	4
0	343641	193.8	4
0	343642	193.8	4
0	343643	193.8	4
0	343644	193.8	4
0	343695	193.85	4
0	343696	193.85	4
0	343697	193.85	4
0	343698	193.85	4
0	343699	193.85	4
0	343809	193.9	4
0	343810	193.9	4
0	343811	193.9	4
0	343812	193.9	4
0	343813	193.9	4
0	343814	193.9	4
0	343815	193.9	4
0	343816	193.9	4
0	343817	193.9	4
0	343818	193.9	4
0	343869	193.95	4
0	343870	193.95	4
0	343871	193.95	4
0	343872	193.95	4
0	343873	193.95	4
0	343937	194	4
0	343938	194	4
0	343939	194	4
0	343940	194	4
0	343941	194	4
0	343942	194	4
0	343943	194	4
0	343944	194	4
0	343945	194	4
0	343946	194	4
0	344037	194.05	4
0	344038	194.05	4
0	344039	194.05	4
0	344040	194.05	4
0	344041	194.05	4
0	344082	194.1	4
0	344083	194.1	4
0	344084	194.1	4
0	344085	194.1	4
0	344086	194.1	4
0	344087	194.1	4
0	344088	194.1	4
0	344089	194.1	4
0	344090	194.1	4
0	344091	194.1	4
0	344165	194.15	4
0	344166	194.15	4
0	344167	194.15	4
0	344168	194.15	4
0	344169	194.15	4
0	344337	194.2	4
0	344338	194.2	4
0	344339	194.2	4
0	344340	194.2	4
0	344341	194.2	4
0	344342	194.2	4
0	344343	194.2	4
0	344344	194.2	4
0	344345	194.2	4
0	344346	194.2	4
0	344454	194.25	4
0	344455	194.25	4
0	344456	194.25	4
0	344457	194.25	4
0	344458	194.25	4
0	344522	194.3	4
0	344523	194.3	4
0	344524	194.3	4
0	344525	194.3	4
0	344526	194.3	4
0	344527	194.3	4
0	344528	194.3	4
0	344529	194.3	4
0	344530	194.3	4
0	344531	194.3	4
0	344582	194.35	4
0	344583	194.35	4
0	344584	194.35	4
0	344585	194.35	4
0	344586	194.35	4
0	344644	194.4	4
0	344645	194.4	4
0	344646	194.4	4
0	344647	194.4	4
0	344648	194.4	4
0	344649	194.4	4
0	344650	194.4	4
0	344651	194.4	4
0	344652	194.4	4
0	344653	194.4	4
0	344761	194.45	4
0	344762	194.45	4
0	344763	194.45	4
0	344764	194.45	4
0	344765	194.45	4
0	344806	194.5	4
0	344807	194.5	4
0	344808	194.5	4
0	344809	194.5	4
0	344810	194.5	4
0	344811	194.5	4
0	344812	194.5	4
0	344813	194.5	4
0	344814	194.5	4
0	344815	194.5	4
0	344912	194.55	4
0	344913	194.55	4
0	344914	194.55	4
0	344915	194.55	4
0	344916	194.55	4
0	344985	194.6	4
0	344986	194.6	4
0	344987	194.6	4
0	344988	194.6	4
0	344989	194.6	4
0	344990	194.6	4
0	344991	194.6	4
0	344992	194.6	4
0	344993	194.6	4
0	344994	194.6	4
0	345045	194.65	4
0	345046	194.65	4
0	345047	194.65	4
0	345048	194.65	4
0	345049	194.65	4
0	345113	194.7	4
0	345114	194.7	4
0	345115	194.7	4
0	345116	194.7	4
0	345117	194.7	4
0	345118	194.7	4
0	345119	194.7	4
0	345120	194.7	4
0	345121	194.7	4
0	345122	194.7	4
0	345300	194.75	4
0	345301	194.75	4
0	345302	194.75	4
0	345303	194.75	4
0	345304	194.75	4
0	345402	194.8	4
0	345403	194.8	4
0	345404	194.8	4
0	345405	194.8	4
0	345406	194.8	4
0	345407	194.8	4
0	345408	194.8	4
0	345409	194.8	4
0	345410	194.8	4
0	345411	194.8	4
0	345485	194.85	4
0	345486	194.85	4
0	345487	194.85	4
0	345488	194.85	4
0	345489	194.85	4
0	345530	194.9	4
0	345531	194.9	4
0	345532	194.9	4
0	345533	194.9	4
0	345534	194.9	4
0	345535	194.9	4
0	345536	194.9	4
0	345537	194.9	4
0	345538	194.9	4
0	345539	194.9	4
0	345613	194.95	4
0	345614	194.95	4
0	345615	194.95	4
0	345616	194.95	4
0	345617	194.95	4
0	345704	195	4
0	345705	195	4
0	345706	195	4
0	345707	195	4
0	345708	195	4
0	345709	195	4
0	345710	195	4
0	345711	195	4
0	345712	195	4
0	345713	195	4
0	345764	195.05	4
0	345765	195.05	4
0	345766	195.05	4
0	345767	195.05	4
0	345768	195.05	4
0	345837	195.1	4
0	345838	195.1	4
0	345839	195.1	4
0	345840	195.1	4
0	345841	195.1	4
0	345842	195.1	4
0	345843	195.1	4
0	345844	195.1	4
0	345845	195.1	4
0	345846	195.1	4
0	345920	195.15	4
0	345921	195.15	4
0	345922	195.15	4
0	345923	195.15	4
0	345924	195.15	4
0	345965	195.2	4
0	345966	195.2	4
0	345967	195.2	4
0	345968	195.2	4
0	345969	195.2	4
0	345970	195.2	4
0	345971	195.2	4
0	345972	195.2	4
0	345973	195.2	4
0	345974	195.2	4
0	346071	195.25	4
0	346072	195.25	4
0	346073	195.25	4
0	346074	195.25	4
0	346075	195.25	4
0	346243	195.3	4
0	346244	195.3	4
0	346245	195.3	4
0	346246	195.3	4
0	346247	195.3	4
0	346248	195.3	4
0	346249	195.3	4
0	346250	195.3	4
0	346251	195.3	4
0	346252	195.3	4
0	346360	195.35	4
0	346361	195.35	4
0	346362	195.35	4
0	346363	195.35	4
0	346364	195.35	4
0	346451	195.4	4
0	346452	195.4	4
0	346453	195.4	4
0	346454	195.4	4
0	346455	195.4	4
0	346456	195.4	4
0	346457	195.4	4
0	346458	195.4	4
0	346459	195.4	4
0	346460	195.4	4
0	346511	195.45	4
0	346512	195.45	4
0	346513	195.45	4
0	346514	195.45	4
0	346515	195.45	4
0	346556	195.5	4
0	346557	195.5	4
0	346558	195.5	4
0	346559	195.5	4
0	346560	195.5	4
0	346561	195.5	4
0	346562	195.5	4
0	346563	195.5	4
0	346564	195.5	4
0	346565	195.5	4
0	346662	195.55	4
0	346663	195.55	4
0	346664	195.55	4
0	346665	195.55	4
0	346666	195.55	4
0	346707	195.6	4
0	346708	195.6	4
0	346709	195.6	4
0	346710	195.6	4
0	346711	195.6	4
0	346712	195.6	4
0	346713	195.6	4
0	346714	195.6	4
0	346715	195.6	4
0	346716	195.6	4
0	346790	195.65	4
0	346791	195.65	4
0	346792	195.65	4
0	346793	195.65	4
0	346794	195.65	4
0	346858	195.7	4
0	346859	195.7	4
0	346860	195.7	4
0	346861	195.7	4
0	346862	195.7	4
0	346863	195.7	4
0	346864	195.7	4
0	346865	195.7	4
0	346866	195.7	4
0	346867	195.7	4
0	346918	195.75	4
0	346919	195.75	4
0	346920	195.75	4
0	346921	195.75	4
0	346922	195.75	4
0	347009	195.8	4
0	347010	195.8	4
0	347011	195.8	4
0	347012	195.8	4
0	347013	195.8	4
0	347014	195.8	4
0	347015	195.8	4
0	347016	195.8	4
0	347017	195.8	4
0	347018	195.8	4
0	347196	195.85	4
0	347197	195.85	4
0	347198	195.85	4
0	347199	195.85	4
0	347200	195.85	4
0	347298	195.9	4
0	347299	195.9	4
0	347300	195.9	4
0	347301	195.9	4
0	347302	195.9	4
0	347303	195.9	4
0	347304	195.9	4
0	347305	195.9	4
0	347306	195.9	4
0	347307	195.9	4
0	347404	195.95	4
0	347405	195.95	4
0	347406	195.95	4
0	347407	195.95	4
0	347408	195.95	4
0	347449	196	4
0	347450	196	4
0	347451	196	4
0	347452	196	4
0	347453	196	4
0	347454	196	4
0	347455	196	4
0	347456	196	4
0	347457	196	4
0	347458	196	4
0	347532	196.05	4
0	347533	196.05	4
0	347534	196.05	4
0	347535	196.05	4
0	347536	196.05	4
0	347623	196.1	4
0	347624	196.1	4
0	347625	196.1	4
0	347626	196.1	4
0	347627	196.1	4
0	347628	196.1	4
0	347629	196.1	4
0	347630	196.1	4
0	347631	196.1	4
0	347632	196.1	4
0	347683	196.15	4
0	347684	196.15	4
0	347685	196.15	4
0	347686	196.15	4
0	347687	196.15	4
0	347774	196.2	4
0	347775	196.2	4
0	347776	196.2	4
0	347777	196.2	4
0	347778	196.2	4
0	347779	196.2	4
0	347780	196.2	4
0	347781	196.2	4
0	347782	196.2	4
0	347783	196.2	4
0	347851	196.25	4
0	347852	196.25	4
0	347853	196.25	4
0	347854	196.25	4
0	347855	196.25	4
0	347896	196.3	4
0	347897	196.3	4
0	347898	196.3	4
0	347899	196.3	4
0	347900	196.3	4
0	347901	196.3	4
0	347902	196.3	4
0	347903	196.3	4
0	347904	196.3	4
0	347905	196.3	4
0	347984	196.35	4
0	347985	196.35	4
0	347986	196.35	4
0	347987	196.35	4
0	347988	196.35	4
0	348156	196.4	4
0	348157	196.4	4
0	348158	196.4	4
0	348159	196.4	4
0	348160	196.4	4
0	348161	196.4	4
0	348162	196.4	4
0	348163	196.4	4
0	348164	196.4	4
0	348165	196.4	4
0	348273	196.45	4
0	348274	196.45	4
0	348275	196.45	4
0	348276	196.45	4
0	348277	196.45	4
0	348364	196.5	4
0	348365	196.5	4
0	348366	196.5	4
0	348367	196.5	4
0	348368	196.5	4
0	348369	196.5	4
0	348370	196.5	4
0	348371	196.5	4
0	348372	196.5	4
0	348373	196.5	4
0	348447	196.55	4
0	348448	196.55	4
0	348449	196.55	4
0	348450	196.55	4
0	348451	196.55	4
0	348515	196.6	4
0	348516	196.6	4
0	348517	196.6	4
0	348518	196.6	4
0	348519	196.6	4
0	348520	196.6	4
0	348521	196.6	4
0	348522	196.6	4
0	348523	196.6	4
0	348524	196.6	4
0	348621	196.65	4
0	348622	196.65	4
0	348623	196.65	4
0	348624	196.65	4
0	348625	196.65	4
0	348683	196.7	4
0	348684	196.7	4
0	348685	196.7	4
0	348686	196.7	4
0	348687	196.7	4
0	348688	196.7	4
0	348689	196.7	4
0	348690	196.7	4
0	348691	196.7	4
0	348692	196.7	4
0	348766	196.75	4
0	348767	196.75	4
0	348768	196.75	4
0	348769	196.75	4
0	348770	196.75	4
0	348834	196.8	4
0	348835	196.8	4
0	348836	196.8	4
0	348837	196.8	4
0	348838	196.8	4
0	348839	196.8	4
0	348840	196.8	4
0	348841	196.8	4
0	348842	196.8	4
0	348843	196.8	4
0	348894	196.85	4
0	348895	196.85	4
0	348896	196.85	4
0	348897	196.85	4
0	348898	196.85	4
0	348962	196.9	4
0	348963	196.9	4
0	348964	196.9	4
0	348965	196.9	4
0	348966	196.9	4
0	348967	196.9	4
0	348968	196.9	4
0	348969	196.9	4
0	348970	196.9	4
0	348971	196.9	4
0	349149	196.95	4
0	349150	196.95	4
0	349151	196.95	4
0	349152	196.95	4
0	349153	196.95	4
0	349256	197	4
0	349257	197	4
0	349258	197	4
0	349259	197	4
0	349260	197	4
0	349261	197	4
0	349262	197	4
0	349263	197	4
0	349264	197	4
0	349265	197	4
0	349356	197.05	4
0	349357	197.05	4
0	349358	197.05	4
0	349359	197.05	4
0	349360	197.05	4
0	349406	197.1	4
0	349407	197.1	4
0	349408	197.1	4
0	349409	197.1	4
0	349410	197.1	4
0	349411	197.1	4
0	349412	197.1	4
0	349413	197.1	4
0	349414	197.1	4
0	349415	197.1	4
0	349489	197.15	4
0	349490	197.15	4
0	349491	197.15	4
0	349492	197.15	4
0	349493	197.15	4
0	349580	197.2	4
0	349581	197.2	4
0	349582	197.2	4
0	349583	197.2	4
0	349584	197.2	4
0	349585	197.2	4
0	349586	197.2	4
0	349587	197.2	4
0	349588	197.2	4
0	349589	197.2	4
0	349640	197.25	4
0	349641	197.25	4
0	349642	197.25	4
0	349643	197.25	4
0	349644	197.25	4
0	349708	197.3	4
0	349709	197.3	4
0	349710	197.3	4
0	349711	197.3	4
0	349712	197.3	4
0	349713	197.3	4
0	349714	197.3	4
0	349715	197.3	4
0	349716	197.3	4
0	349717	197.3	4
0	349791	197.35	4
0	349792	197.35	4
0	349793	197.35	4
0	349794	197.35	4
0	349795	197.35	4
0	349836	197.4	4
0	349837	197.4	4
0	349838	197.4	4
0	349839	197.4	4
0	349840	197.4	4
0	349841	197.4	4
0	349842	197.4	4
0	349843	197.4	4
0	349844	197.4	4
0	349845	197.4	4
0	349919	197.45	4
0	349920	197.45	4
0	349921	197.45	4
0	349922	197.45	4
0	349923	197.45	4
0	350091	197.5	4
0	350092	197.5	4
0	350093	197.5	4
0	350094	197.5	4
0	350095	197.5	4
0	350096	197.5	4
0	350097	197.5	4
0	350098	197.5	4
0	350099	197.5	4
0	350100	197.5	4
0	350208	197.55	4
0	350209	197.55	4
0	350210	197.55	4
0	350211	197.55	4
0	350212	197.55	4
0	350281	197.6	4
0	350282	197.6	4
0	350283	197.6	4
0	350284	197.6	4
0	350285	197.6	4
0	350286	197.6	4
0	350287	197.6	4
0	350288	197.6	4
0	350289	197.6	4
0	350290	197.6	4
0	350341	197.65	4
0	350342	197.65	4
0	350343	197.65	4
0	350344	197.65	4
0	350345	197.65	4
0	350409	197.7	4
0	350410	197.7	4
0	350411	197.7	4
0	350412	197.7	4
0	350413	197.7	4
0	350414	197.7	4
0	350415	197.7	4
0	350416	197.7	4
0	350417	197.7	4
0	350418	197.7	4
0	350509	197.75	4
0	350510	197.75	4
0	350511	197.75	4
0	350512	197.75	4
0	350513	197.75	4
0	350577	197.8	4
0	350578	197.8	4
0	350579	197.8	4
0	350580	197.8	4
0	350581	197.8	4
0	350582	197.8	4
0	350583	197.8	4
0	350584	197.8	4
0	350585	197.8	4
0	350586	197.8	4
0	350660	197.85	4
0	350661	197.85	4
0	350662	197.85	4
0	350663	197.85	4
0	350664	197.85	4
0	350728	197.9	4
0	350729	197.9	4
0	350730	197.9	4
0	350731	197.9	4
0	350732	197.9	4
0	350733	197.9	4
0	350734	197.9	4
0	350735	197.9	4
0	350736	197.9	4
0	350737	197.9	4
0	350811	197.95	4
0	350812	197.95	4
0	350813	197.95	4
0	350814	197.95	4
0	350815	197.95	4
0	350856	198	4
0	350857	198	4
0	350858	198	4
0	350859	198	4
0	350860	198	4
0	350861	198	4
0	350862	198	4
0	350863	198	4
0	350864	198	4
0	350865	198	4
0	351043	198.05	4
0	351044	198.05	4
0	351045	198.05	4
0	351046	198.05	4
0	351047	198.05	4
0	351145	198.1	4
0	351146	198.1	4
0	351147	198.1	4
0	351148	198.1	4
0	351149	198.1	4
0	351150	198.1	4
0	351151	198.1	4
0	351152	198.1	4
0	351153	198.1	4
0	351154	198.1	4
0	351228	198.15	4
0	351229	198.15	4
0	351230	198.15	4
0	351231	198.15	4
0	351232	198.15	4
0	351273	198.2	4
0	351274	198.2	4
0	351275	198.2	4
0	351276	198.2	4
0	351277	198.2	4
0	351278	198.2	4
0	351279	198.2	4
0	351280	198.2	4
0	351281	198.2	4
0	351282	198.2	4
0	351356	198.25	4
0	351357	198.25	4
0	351358	198.25	4
0	351359	198.25	4
0	351360	198.25	4
0	351470	198.3	4
0	351471	198.3	4
0	351472	198.3	4
0	351473	198.3	4
0	351474	198.3	4
0	351475	198.3	4
0	351476	198.3	4
0	351477	198.3	4
0	351478	198.3	4
0	351479	198.3	4
0	351553	198.35	4
0	351554	198.35	4
0	351555	198.35	4
0	351556	198.35	4
0	351557	198.35	4
0	351621	198.4	4
0	351622	198.4	4
0	351623	198.4	4
0	351624	198.4	4
0	351625	198.4	4
0	351626	198.4	4
0	351627	198.4	4
0	351628	198.4	4
0	351629	198.4	4
0	351630	198.4	4
0	351727	198.45	4
0	351728	198.45	4
0	351729	198.45	4
0	351730	198.45	4
0	351731	198.45	4
0	351795	198.5	4
0	351796	198.5	4
0	351797	198.5	4
0	351798	198.5	4
0	351799	198.5	4
0	351800	198.5	4
0	351801	198.5	4
0	351802	198.5	4
0	351803	198.5	4
0	351804	198.5	4
0	351855	198.55	4
0	351856	198.55	4
0	351857	198.55	4
0	351858	198.55	4
0	351859	198.55	4
0	352027	198.6	4
0	352028	198.6	4
0	352029	198.6	4
0	352030	198.6	4
0	352031	198.6	4
0	352032	198.6	4
0	352033	198.6	4
0	352034	198.6	4
0	352035	198.6	4
0	352036	198.6	4
0	352144	198.65	4
0	352145	198.65	4
0	352146	198.65	4
0	352147	198.65	4
0	352148	198.65	4
0	352212	198.7	4
0	352213	198.7	4
0	352214	198.7	4
0	352215	198.7	4
0	352216	198.7	4
0	352217	198.7	4
0	352218	198.7	4
0	352219	198.7	4
0	352220	198.7	4
0	352221	198.7	4
0	352272	198.75	4
0	352273	198.75	4
0	352274	198.75	4
0	352275	198.75	4
0	352276	198.75	4
0	352340	198.8	4
0	352341	198.8	4
0	352342	198.8	4
0	352343	198.8	4
0	352344	198.8	4
0	352345	198.8	4
0	352346	198.8	4
0	352347	198.8	4
0	352348	198.8	4
0	352349	198.8	4
0	352451	198.85	4
0	352452	198.85	4
0	352453	198.85	4
0	352454	198.85	4
0	352455	198.85	4
0	352513	198.9	4
0	352514	198.9	4
0	352515	198.9	4
0	352516	198.9	4
0	352517	198.9	4
0	352518	198.9	4
0	352519	198.9	4
0	352520	198.9	4
0	352521	198.9	4
0	352522	198.9	4
0	352596	198.95	4
0	352597	198.95	4
0	352598	198.95	4
0	352599	198.95	4
0	352600	198.95	4
0	352664	199	4
0	352665	199	4
0	352666	199	4
0	352667	199	4
0	352668	199	4
0	352669	199	4
0	352670	199	4
0	352671	199	4
0	352672	199	4
0	352673	199	4
0	352764	199.05	4
0	352765	199.05	4
0	352766	199.05	4
0	352767	199.05	4
0	352768	199.05	4
0	352809	199.1	4
0	352810	199.1	4
0	352811	199.1	4
0	352812	199.1	4
0	352813	199.1	4
0	352814	199.1	4
0	352815	199.1	4
0	352816	199.1	4
0	352817	199.1	4
0	352818	199.1	4
0	352996	199.15	4
0	352997	199.15	4
0	352998	199.15	4
0	352999	199.15	4
0	353000	199.15	4
0	353121	199.2	4
0	353122	199.2	4
0	353123	199.2	4
0	353124	199.2	4
0	353125	199.2	4
0	353126	199.2	4
0	353127	199.2	4
0	353128	199.2	4
0	353129	199.2	4
0	353130	199.2	4
0	353204	199.25	4
0	353205	199.25	4
0	353206	199.25	4
0	353207	199.25	4
0	353208	199.25	4
0	353249	199.3	4
0	353250	199.3	4
0	353251	199.3	4
0	353252	199.3	4
0	353253	199.3	4
0	353254	199.3	4
0	353255	199.3	4
0	353256	199.3	4
0	353257	199.3	4
0	353258	199.3	4
0	353332	199.35	4
0	353333	199.35	4
0	353334	199.35	4
0	353335	199.35	4
0	353336	199.35	4
0	353423	199.4	4
0	353424	199.4	4
0	353425	199.4	4
0	353426	199.4	4
0	353427	199.4	4
0	353428	199.4	4
0	353429	199.4	4
0	353430	199.4	4
0	353431	199.4	4
0	353432	199.4	4
0	353506	199.45	4
0	353507	199.45	4
0	353508	199.45	4
0	353509	199.45	4
0	353510	199.45	4
0	353574	199.5	4
0	353575	199.5	4
0	353576	199.5	4
0	353577	199.5	4
0	353578	199.5	4
0	353579	199.5	4
0	353580	199.5	4
0	353581	199.5	4
0	353582	199.5	4
0	353583	199.5	4
0	353657	199.55	4
0	353658	199.55	4
0	353659	199.55	4
0	353660	199.55	4
0	353661	199.55	4
0	353742	199.6	4
0	353743	199.6	4
0	353744	199.6	4
0	353745	199.6	4
0	353746	199.6	4
0	353747	199.6	4
0	353748	199.6	4
0	353749	199.6	4
0	353750	199.6	4
0	353751	199.6	4
0	353802	199.65	4
0	353803	199.65	4
0	353804	199.65	4
0	353805	199.65	4
0	353806	199.65	4
0	353974	199.7	4
0	353975	199.7	4
0	353976	199.7	4
0	353977	199.7	4
0	353978	199.7	4
0	353979	199.7	4
0	353980	199.7	4
0	353981	199.7	4
0	353982	199.7	4
0	353983	199.7	4
0	354114	199.75	4
0	354115	199.75	4
0	354116	199.75	4
0	354117	199.75	4
0	354118	199.75	4
0	354182	199.8	4
0	354183	199.8	4
0	354184	199.8	4
0	354185	199.8	4
0	354186	199.8	4
0	354187	199.8	4
0	354188	199.8	4
0	354189	199.8	4
0	354190	199.8	4
0	354191	199.8	4
0	354242	199.85	4
0	354243	199.85	4
0	354244	199.85	4
0	354245	199.85	4
0	354246	199.85	4
0	354310	199.9	4
0	354311	199.9	4
0	354312	199.9	4
0	354313	199.9	4
0	354314	199.9	4
0	354315	199.9	4
0	354316	199.9	4
0	354317	199.9	4
0	354318	199.9	4
0	354319	199.9	4
0	354398	199.95	4
0	354399	199.95	4
0	354400	199.95	4
0	354401	199.95	4
0	354402	199.95	4
0	354466	200	4
0	354467	200	4
0	354468	200	4
0	354469	200	4
0	354470	200	4
0	354471	200	4
0	354472	200	4
0	354473	200	4
0	354474	200	4
0	354475	200	4

