version 2
run C-0-20190915-23:55:57-9173
attr configname C
attr datetime 20190915-23:55:57
attr experiment C
attr inifile SimV2.ini
attr iterationvars ""
attr iterationvarsf ""
attr measurement ""
attr network NetworkTormV2
attr processid 9173
attr repetition 0
attr replication #0
attr resultdir results
attr runnumber 0
attr seedset 0
param **.mobility.traceFile "\"paths/C.movements\""
param **.numNodes 4
param **.wirelessIfc.wirelessRange 35m
param **.bluetoothIfc.wirelessRange 35m
param **.application.usedRNG 1
param **.application.dataGenerationInterval 1s
param **.application.dataSizeInBytes 10
param **.application.ttl 999999s
param **application.destinationAddr "\"Wf:00:00:00:00:02\""
param **application.destinationBTAddr "\"Bt:00:00:00:00:02\""
param **application.nodesThatGen true
param **application.nodesGenMsg "\"0,1,3\""
param **application.startMultipleMsg false
param **application.numMultipleMsg 100
param **application.hopsListSize 50
param **.application.endGeneratingMsg 90s
param **.numNodes 2
param **.application.usedRNG 1
param **.application.dataGenerationInterval 1ms
param **.application.dataSizeInBytes 10
param **.application.ttl 999999s
param **application.destinationAddr "\"Wf:00:00:00:00:02\""
param **application.destinationBTAddr "\"Bt:00:00:00:00:02\""
param **application.nodesThatGen true
param **application.nodesGenMsg "\"0\""
param **application.startMultipleMsg true
param **application.numMultipleMsg 100
param **application.hopsListSize 50
param **.application.endGeneratingMsg 999999s
param **.routingLayer "\"RoutingLayer\""
param **.routing.maximumCacheSize 5000byte
param **.routing.maximumHopCount 25
param **.routing.useTTL false
param **.routing.waitBFsend 0.5
param **.routing.max_age 999999s
param **.neighboring.antiEntropyInterval 500ms
param **.neighboring.maximumRandomBackoffDuration 1s
param **.neighboring.delayPerDataMsg 0.1
param **neighboring.usedRNG 2
param **.neighboring.GWAddr "\"02:00:00:00:00:09\""
param **.neighboring.sendWifiFirst true
param **.neighboring.maxLengthGraph 20
param **.neighboring.max_age 999999s
param **.wirelessIfc.wirelessRange 15m
param **.wirelessIfc.neighbourScanInterval 50ms
param **.wirelessIfc.bandwidthBitRate 100000bps
param **.wirelessIfc.wirelessHeaderSize 32byte
param **.wirelessIfc.minSSI -90
param **.bluetoothIfc.wirelessRange 15m
param **.bluetoothIfc.neighbourScanInterval 100ms
param **.bluetoothIfc.bandwidthBitRate 100000bps
param **.bluetoothIfc.wirelessHeaderSize 16byte
param **.bluetoothIfc.minSSI -90
param **.mobilityType "\"BonnMotionMobility\""
param **.mobility.traceFile "\"paths/Moves2.movements\""
param **.mobility.is3D false
param **.mobility.nodeId -1

vector 0 NetworkTormV2 neighbourhoodSize:vector ETV
attr source neighbourhoodSize
vector 1 NetworkTormV2 deliveryRatio:vector ETV
attr source sum(totalDataBytesReceived)/sum(totalDataBytesReceivableByAllNodes)
vector 2 NetworkTormV2 dataBytesReceivedSum:vector ETV
attr source sum(dataBytesReceived)
vector 3 NetworkTormV2 totalBytesReceivedSum:vector ETV
attr source sum(totalBytesReceived)
0	13	0.05	3
0	14	0.05	3
0	15	0.05	3
0	16	0.05	3
0	26	0.1	3
0	28	0.1	3
0	29	0.1	3
0	31	0.1	3
0	36	0.1	3
0	37	0.1	3
0	38	0.1	3
0	39	0.1	3
0	59	0.15	3
0	60	0.15	3
0	61	0.15	3
0	62	0.15	3
0	71	0.2	3
0	72	0.2	3
0	73	0.2	3
0	74	0.2	3
0	79	0.2	3
0	80	0.2	3
0	81	0.2	3
0	82	0.2	3
0	99	0.25	3
0	100	0.25	3
0	101	0.25	3
0	102	0.25	3
0	111	0.3	3
0	112	0.3	3
0	113	0.3	3
0	114	0.3	3
0	119	0.3	3
0	120	0.3	3
0	121	0.3	3
0	122	0.3	3
0	139	0.35	3
0	140	0.35	3
0	141	0.35	3
0	142	0.35	3
0	151	0.4	3
0	152	0.4	3
0	153	0.4	3
0	154	0.4	3
0	159	0.4	3
0	160	0.4	3
0	161	0.4	3
0	162	0.4	3
0	179	0.45	3
0	180	0.45	3
0	181	0.45	3
0	182	0.45	3
0	191	0.5	3
0	192	0.5	3
0	193	0.5	3
0	194	0.5	3
0	199	0.5	3
0	200	0.5	3
0	201	0.5	3
0	202	0.5	3
0	219	0.55	3
0	220	0.55	3
0	221	0.55	3
0	222	0.55	3
0	231	0.6	3
0	232	0.6	3
0	233	0.6	3
0	234	0.6	3
0	239	0.6	3
0	240	0.6	3
0	241	0.6	3
0	242	0.6	3
0	259	0.65	3
0	260	0.65	3
0	261	0.65	3
0	262	0.65	3
0	271	0.7	3
0	272	0.7	3
0	273	0.7	3
0	274	0.7	3
0	279	0.7	3
0	280	0.7	3
0	281	0.7	3
0	282	0.7	3
0	299	0.75	3
0	300	0.75	3
0	301	0.75	3
0	302	0.75	3
0	311	0.8	3
0	312	0.8	3
0	313	0.8	3
0	314	0.8	3
0	319	0.8	3
0	320	0.8	3
0	321	0.8	3
0	322	0.8	3
0	339	0.85	3
0	340	0.85	3
0	341	0.85	3
0	342	0.85	3
0	351	0.9	3
0	352	0.9	3
0	353	0.9	3
0	354	0.9	3
0	359	0.9	3
0	360	0.9	3
0	361	0.9	3
0	362	0.9	3
0	379	0.95	3
0	380	0.95	3
0	381	0.95	3
0	382	0.95	3
0	391	1	3
0	392	1	3
0	393	1	3
0	394	1	3
0	399	1	3
0	400	1	3
0	401	1	3
0	402	1	3
0	419	1.05	3
0	420	1.05	3
0	421	1.05	3
0	422	1.05	3
0	434	1.1	3
0	435	1.1	3
0	436	1.1	3
0	437	1.1	3
0	442	1.1	3
0	443	1.1	3
0	444	1.1	3
0	445	1.1	3
0	633	1.15	3
0	634	1.15	3
0	635	1.15	3
0	636	1.15	3
0	705	1.2	3
0	706	1.2	3
0	707	1.2	3
0	708	1.2	3
0	713	1.2	3
0	714	1.2	3
0	715	1.2	3
0	716	1.2	3
0	733	1.25	3
0	734	1.25	3
0	735	1.25	3
0	736	1.25	3
0	745	1.3	3
0	746	1.3	3
0	747	1.3	3
0	748	1.3	3
0	753	1.3	3
0	754	1.3	3
0	755	1.3	3
0	756	1.3	3
0	773	1.35	3
0	774	1.35	3
0	775	1.35	3
0	776	1.35	3
0	785	1.4	3
0	786	1.4	3
0	787	1.4	3
0	788	1.4	3
0	793	1.4	3
0	794	1.4	3
0	795	1.4	3
0	796	1.4	3
0	813	1.45	3
0	814	1.45	3
0	815	1.45	3
0	816	1.45	3
0	825	1.5	3
0	826	1.5	3
0	827	1.5	3
0	828	1.5	3
0	833	1.5	3
0	834	1.5	3
0	835	1.5	3
0	836	1.5	3
0	853	1.55	3
0	854	1.55	3
0	855	1.55	3
0	856	1.55	3
0	865	1.6	3
0	866	1.6	3
0	867	1.6	3
0	868	1.6	3
0	873	1.6	3
0	874	1.6	3
0	875	1.6	3
0	876	1.6	3
0	893	1.65	3
0	894	1.65	3
0	895	1.65	3
0	896	1.65	3
0	1061	1.7	3
0	1062	1.7	3
0	1063	1.7	3
0	1064	1.7	3
0	1069	1.7	3
0	1070	1.7	3
0	1071	1.7	3
0	1072	1.7	3
0	1089	1.75	3
0	1090	1.75	3
0	1091	1.75	3
0	1092	1.75	3
0	1101	1.8	3
0	1102	1.8	3
0	1103	1.8	3
0	1104	1.8	3
0	1109	1.8	3
0	1110	1.8	3
0	1111	1.8	3
0	1112	1.8	3
0	1129	1.85	3
0	1130	1.85	3
0	1131	1.85	3
0	1132	1.85	3
0	1141	1.9	3
0	1142	1.9	3
0	1143	1.9	3
0	1144	1.9	3
0	1149	1.9	3
0	1150	1.9	3
0	1151	1.9	3
0	1152	1.9	3
0	1169	1.95	3
0	1170	1.95	3
0	1171	1.95	3
0	1172	1.95	3
0	1181	2	3
0	1182	2	3
0	1183	2	3
0	1184	2	3
0	1189	2	3
0	1190	2	3
0	1191	2	3
0	1192	2	3
0	1209	2.05	3
0	1210	2.05	3
0	1211	2.05	3
0	1212	2.05	3
0	1224	2.1	3
0	1225	2.1	3
0	1226	2.1	3
0	1227	2.1	3
0	1232	2.1	3
0	1233	2.1	3
0	1234	2.1	3
0	1235	2.1	3
0	1255	2.15	3
0	1256	2.15	3
0	1257	2.15	3
0	1258	2.15	3
0	1267	2.2	3
0	1268	2.2	3
0	1269	2.2	3
0	1270	2.2	3
0	1275	2.2	3
0	1276	2.2	3
0	1277	2.2	3
0	1278	2.2	3
0	1459	2.25	3
0	1460	2.25	3
0	1461	2.25	3
0	1462	2.25	3
0	1511	2.3	3
0	1512	2.3	3
0	1513	2.3	3
0	1514	2.3	3
0	1519	2.3	3
0	1520	2.3	3
0	1521	2.3	3
0	1522	2.3	3
0	1539	2.35	3
0	1540	2.35	3
0	1541	2.35	3
0	1542	2.35	3
0	1551	2.4	3
0	1552	2.4	3
0	1553	2.4	3
0	1554	2.4	3
0	1559	2.4	3
0	1560	2.4	3
0	1561	2.4	3
0	1562	2.4	3
0	1579	2.45	3
0	1580	2.45	3
0	1581	2.45	3
0	1582	2.45	3
0	1591	2.5	3
0	1592	2.5	3
0	1593	2.5	3
0	1594	2.5	3
0	1599	2.5	3
0	1600	2.5	3
0	1601	2.5	3
0	1602	2.5	3
0	1619	2.55	3
0	1620	2.55	3
0	1621	2.55	3
0	1622	2.55	3
0	1631	2.6	3
0	1632	2.6	3
0	1633	2.6	3
0	1634	2.6	3
0	1639	2.6	3
0	1640	2.6	3
0	1641	2.6	3
0	1642	2.6	3
0	1659	2.65	3
0	1660	2.65	3
0	1661	2.65	3
0	1662	2.65	3
0	1671	2.7	3
0	1672	2.7	3
0	1673	2.7	3
0	1674	2.7	3
0	1679	2.7	3
0	1680	2.7	3
0	1681	2.7	3
0	1682	2.7	3
0	1699	2.75	3
0	1700	2.75	3
0	1701	2.75	3
0	1702	2.75	3
0	1869	2.8	3
0	1870	2.8	3
0	1871	2.8	3
0	1872	2.8	3
0	1877	2.8	3
0	1878	2.8	3
0	1879	2.8	3
0	1880	2.8	3
0	1907	2.85	3
0	1908	2.85	3
0	1909	2.85	3
0	1910	2.85	3
0	1919	2.9	3
0	1920	2.9	3
0	1921	2.9	3
0	1922	2.9	3
0	1927	2.9	3
0	1928	2.9	3
0	1929	2.9	3
0	1930	2.9	3
0	1947	2.95	3
0	1948	2.95	3
0	1949	2.95	3
0	1950	2.95	3
0	1959	3	3
0	1960	3	3
0	1961	3	3
0	1962	3	3
0	1967	3	3
0	1968	3	3
0	1969	3	3
0	1970	3	3
0	1987	3.05	3
0	1988	3.05	3
0	1989	3.05	3
0	1990	3.05	3
0	2002	3.1	3
0	2003	3.1	3
0	2004	3.1	3
0	2005	3.1	3
0	2010	3.1	3
0	2011	3.1	3
0	2012	3.1	3
0	2013	3.1	3
0	2033	3.15	3
0	2034	3.15	3
0	2035	3.15	3
0	2036	3.15	3
0	2045	3.2	3
0	2046	3.2	3
0	2047	3.2	3
0	2048	3.2	3
0	2053	3.2	3
0	2054	3.2	3
0	2055	3.2	3
0	2056	3.2	3
0	2073	3.25	3
0	2074	3.25	3
0	2075	3.25	3
0	2076	3.25	3
0	2085	3.3	3
0	2086	3.3	3
0	2087	3.3	3
0	2088	3.3	3
0	2093	3.3	3
0	2094	3.3	3
0	2095	3.3	3
0	2096	3.3	3
0	2277	3.35	3
0	2278	3.35	3
0	2279	3.35	3
0	2280	3.35	3
0	2329	3.4	3
0	2330	3.4	3
0	2331	3.4	3
0	2332	3.4	3
0	2337	3.4	3
0	2338	3.4	3
0	2339	3.4	3
0	2340	3.4	3
0	2357	3.45	3
0	2358	3.45	3
0	2359	3.45	3
0	2360	3.45	3
0	2369	3.5	3
0	2370	3.5	3
0	2371	3.5	3
0	2372	3.5	3
0	2377	3.5	3
0	2378	3.5	3
0	2379	3.5	3
0	2380	3.5	3
0	2397	3.55	3
0	2398	3.55	3
0	2399	3.55	3
0	2400	3.55	3
0	2409	3.6	3
0	2410	3.6	3
0	2411	3.6	3
0	2412	3.6	3
0	2417	3.6	3
0	2418	3.6	3
0	2419	3.6	3
0	2420	3.6	3
0	2437	3.65	3
0	2438	3.65	3
0	2439	3.65	3
0	2440	3.65	3
0	2449	3.7	3
0	2450	3.7	3
0	2451	3.7	3
0	2452	3.7	3
0	2457	3.7	3
0	2458	3.7	3
0	2459	3.7	3
0	2460	3.7	3
0	2477	3.75	3
0	2478	3.75	3
0	2479	3.75	3
0	2480	3.75	3
0	2489	3.8	3
0	2490	3.8	3
0	2491	3.8	3
0	2492	3.8	3
0	2497	3.8	3
0	2498	3.8	3
0	2499	3.8	3
0	2500	3.8	3
0	2517	3.85	3
0	2518	3.85	3
0	2519	3.85	3
0	2520	3.85	3
0	2687	3.9	3
0	2688	3.9	3
0	2689	3.9	3
0	2690	3.9	3
0	2695	3.9	3
0	2696	3.9	3
0	2697	3.9	3
0	2698	3.9	3
0	2725	3.95	3
0	2726	3.95	3
0	2727	3.95	3
0	2728	3.95	3
0	2737	4	3
0	2738	4	3
0	2739	4	3
0	2740	4	3
0	2745	4	3
0	2746	4	3
0	2747	4	3
0	2748	4	3
0	2765	4.05	3
0	2766	4.05	3
0	2767	4.05	3
0	2768	4.05	3
0	2780	4.1	3
0	2781	4.1	3
0	2782	4.1	3
0	2783	4.1	3
0	2788	4.1	3
0	2789	4.1	3
0	2790	4.1	3
0	2791	4.1	3
0	2811	4.15	3
0	2812	4.15	3
0	2813	4.15	3
0	2814	4.15	3
0	2823	4.2	3
0	2824	4.2	3
0	2825	4.2	3
0	2826	4.2	3
0	2831	4.2	3
0	2832	4.2	3
0	2833	4.2	3
0	2834	4.2	3
0	2851	4.25	3
0	2852	4.25	3
0	2853	4.25	3
0	2854	4.25	3
0	2863	4.3	3
0	2864	4.3	3
0	2865	4.3	3
0	2866	4.3	3
0	2871	4.3	3
0	2872	4.3	3
0	2873	4.3	3
0	2874	4.3	3
0	2891	4.35	3
0	2892	4.35	3
0	2893	4.35	3
0	2894	4.35	3
0	2903	4.4	3
0	2904	4.4	3
0	2905	4.4	3
0	2906	4.4	3
0	2911	4.4	3
0	2912	4.4	3
0	2913	4.4	3
0	2914	4.4	3
0	3097	4.45	3
0	3098	4.45	3
0	3099	4.45	3
0	3100	4.45	3
0	3159	4.5	3
0	3160	4.5	3
0	3161	4.5	3
0	3162	4.5	3
0	3167	4.5	3
0	3168	4.5	3
0	3169	4.5	3
0	3170	4.5	3
0	3187	4.55	3
0	3188	4.55	3
0	3189	4.55	3
0	3190	4.55	3
0	3199	4.6	3
0	3200	4.6	3
0	3201	4.6	3
0	3202	4.6	3
0	3207	4.6	3
0	3208	4.6	3
0	3209	4.6	3
0	3210	4.6	3
0	3227	4.65	3
0	3228	4.65	3
0	3229	4.65	3
0	3230	4.65	3
0	3239	4.7	3
0	3240	4.7	3
0	3241	4.7	3
0	3242	4.7	3
0	3247	4.7	3
0	3248	4.7	3
0	3249	4.7	3
0	3250	4.7	3
0	3267	4.75	3
0	3268	4.75	3
0	3269	4.75	3
0	3270	4.75	3
0	3279	4.8	3
0	3280	4.8	3
0	3281	4.8	3
0	3282	4.8	3
0	3287	4.8	3
0	3288	4.8	3
0	3289	4.8	3
0	3290	4.8	3
0	3307	4.85	3
0	3308	4.85	3
0	3309	4.85	3
0	3310	4.85	3
0	3319	4.9	3
0	3320	4.9	3
0	3321	4.9	3
0	3322	4.9	3
0	3327	4.9	3
0	3328	4.9	3
0	3329	4.9	3
0	3330	4.9	3
0	3347	4.95	3
0	3348	4.95	3
0	3349	4.95	3
0	3350	4.95	3
0	3519	5	3
0	3520	5	3
0	3521	5	3
0	3522	5	3
0	3527	5	3
0	3528	5	3
0	3529	5	3
0	3530	5	3
0	3567	5.05	3
0	3568	5.05	3
0	3569	5.05	3
0	3570	5.05	3
0	3582	5.1	3
0	3583	5.1	3
0	3584	5.1	3
0	3585	5.1	3
0	3590	5.1	3
0	3591	5.1	3
0	3592	5.1	3
0	3593	5.1	3
0	3613	5.15	3
0	3614	5.15	3
0	3615	5.15	3
0	3616	5.15	3
0	3625	5.2	3
0	3626	5.2	3
0	3627	5.2	3
0	3628	5.2	3
0	3633	5.2	3
0	3634	5.2	3
0	3635	5.2	3
0	3636	5.2	3
0	3653	5.25	3
0	3654	5.25	3
0	3655	5.25	3
0	3656	5.25	3
0	3665	5.3	3
0	3666	5.3	3
0	3667	5.3	3
0	3668	5.3	3
0	3673	5.3	3
0	3674	5.3	3
0	3675	5.3	3
0	3676	5.3	3
0	3693	5.35	3
0	3694	5.35	3
0	3695	5.35	3
0	3696	5.35	3
0	3705	5.4	3
0	3706	5.4	3
0	3707	5.4	3
0	3708	5.4	3
0	3713	5.4	3
0	3714	5.4	3
0	3715	5.4	3
0	3716	5.4	3
0	3733	5.45	3
0	3734	5.45	3
0	3735	5.45	3
0	3736	5.45	3
0	3745	5.5	3
0	3746	5.5	3
0	3747	5.5	3
0	3748	5.5	3
0	3753	5.5	3
0	3754	5.5	3
0	3755	5.5	3
0	3756	5.5	3
0	3939	5.55	3
0	3940	5.55	3
0	3941	5.55	3
0	3942	5.55	3
0	4001	5.6	3
0	4002	5.6	3
0	4003	5.6	3
0	4004	5.6	3
0	4009	5.6	3
0	4010	5.6	3
0	4011	5.6	3
0	4012	5.6	3
0	4029	5.65	3
0	4030	5.65	3
0	4031	5.65	3
0	4032	5.65	3
0	4041	5.7	3
0	4042	5.7	3
0	4043	5.7	3
0	4044	5.7	3
0	4049	5.7	3
0	4050	5.7	3
0	4051	5.7	3
0	4052	5.7	3
0	4069	5.75	3
0	4070	5.75	3
0	4071	5.75	3
0	4072	5.75	3
0	4081	5.8	3
0	4082	5.8	3
0	4083	5.8	3
0	4084	5.8	3
0	4089	5.8	3
0	4090	5.8	3
0	4091	5.8	3
0	4092	5.8	3
0	4109	5.85	3
0	4110	5.85	3
0	4111	5.85	3
0	4112	5.85	3
0	4121	5.9	3
0	4122	5.9	3
0	4123	5.9	3
0	4124	5.9	3
0	4129	5.9	3
0	4130	5.9	3
0	4131	5.9	3
0	4132	5.9	3
0	4149	5.95	3
0	4150	5.95	3
0	4151	5.95	3
0	4152	5.95	3
0	4161	6	3
0	4162	6	3
0	4163	6	3
0	4164	6	3
0	4169	6	3
0	4170	6	3
0	4171	6	3
0	4172	6	3
0	4189	6.05	3
0	4190	6.05	3
0	4191	6.05	3
0	4192	6.05	3
0	4364	6.1	3
0	4365	6.1	3
0	4366	6.1	3
0	4367	6.1	3
0	4372	6.1	3
0	4373	6.1	3
0	4374	6.1	3
0	4375	6.1	3
0	4415	6.15	3
0	4416	6.15	3
0	4417	6.15	3
0	4418	6.15	3
0	4427	6.2	3
0	4428	6.2	3
0	4429	6.2	3
0	4430	6.2	3
0	4435	6.2	3
0	4436	6.2	3
0	4437	6.2	3
0	4438	6.2	3
0	4455	6.25	3
0	4456	6.25	3
0	4457	6.25	3
0	4458	6.25	3
0	4467	6.3	3
0	4468	6.3	3
0	4469	6.3	3
0	4470	6.3	3
0	4475	6.3	3
0	4476	6.3	3
0	4477	6.3	3
0	4478	6.3	3
0	4495	6.35	3
0	4496	6.35	3
0	4497	6.35	3
0	4498	6.35	3
0	4507	6.4	3
0	4508	6.4	3
0	4509	6.4	3
0	4510	6.4	3
0	4515	6.4	3
0	4516	6.4	3
0	4517	6.4	3
0	4518	6.4	3
0	4535	6.45	3
0	4536	6.45	3
0	4537	6.45	3
0	4538	6.45	3
0	4547	6.5	3
0	4548	6.5	3
0	4549	6.5	3
0	4550	6.5	3
0	4555	6.5	3
0	4556	6.5	3
0	4557	6.5	3
0	4558	6.5	3
0	4575	6.55	3
0	4576	6.55	3
0	4577	6.55	3
0	4578	6.55	3
0	4587	6.6	3
0	4588	6.6	3
0	4589	6.6	3
0	4590	6.6	3
0	4595	6.6	3
0	4596	6.6	3
0	4597	6.6	3
0	4598	6.6	3
0	4781	6.65	3
0	4782	6.65	3
0	4783	6.65	3
0	4784	6.65	3
0	4843	6.7	3
0	4844	6.7	3
0	4845	6.7	3
0	4846	6.7	3
0	4851	6.7	3
0	4852	6.7	3
0	4853	6.7	3
0	4854	6.7	3
0	4871	6.75	3
0	4872	6.75	3
0	4873	6.75	3
0	4874	6.75	3
0	4883	6.8	3
0	4884	6.8	3
0	4885	6.8	3
0	4886	6.8	3
0	4891	6.8	3
0	4892	6.8	3
0	4893	6.8	3
0	4894	6.8	3
0	4911	6.85	3
0	4912	6.85	3
0	4913	6.85	3
0	4914	6.85	3
0	4923	6.9	3
0	4924	6.9	3
0	4925	6.9	3
0	4926	6.9	3
0	4931	6.9	3
0	4932	6.9	3
0	4933	6.9	3
0	4934	6.9	3
0	4951	6.95	3
0	4952	6.95	3
0	4953	6.95	3
0	4954	6.95	3
0	4963	7	3
0	4964	7	3
0	4965	7	3
0	4966	7	3
0	4971	7	3
0	4972	7	3
0	4973	7	3
0	4974	7	3
0	4991	7.05	3
0	4992	7.05	3
0	4993	7.05	3
0	4994	7.05	3
0	5006	7.1	3
0	5007	7.1	3
0	5008	7.1	3
0	5009	7.1	3
0	5014	7.1	3
0	5015	7.1	3
0	5016	7.1	3
0	5017	7.1	3
0	5037	7.15	3
0	5038	7.15	3
0	5039	7.15	3
0	5040	7.15	3
0	5219	7.2	3
0	5220	7.2	3
0	5221	7.2	3
0	5222	7.2	3
0	5227	7.2	3
0	5228	7.2	3
0	5229	7.2	3
0	5230	7.2	3
0	5317	7.25	3
0	5318	7.25	3
0	5319	7.25	3
0	5320	7.25	3
0	5329	7.3	3
0	5330	7.3	3
0	5331	7.3	3
0	5332	7.3	3
0	5337	7.3	3
0	5338	7.3	3
0	5339	7.3	3
0	5340	7.3	3
0	5357	7.35	3
0	5358	7.35	3
0	5359	7.35	3
0	5360	7.35	3
0	5369	7.4	3
0	5370	7.4	3
0	5371	7.4	3
0	5372	7.4	3
0	5377	7.4	3
0	5378	7.4	3
0	5379	7.4	3
0	5380	7.4	3
0	5397	7.45	3
0	5398	7.45	3
0	5399	7.45	3
0	5400	7.45	3
0	5409	7.5	3
0	5410	7.5	3
0	5411	7.5	3
0	5412	7.5	3
0	5417	7.5	3
0	5418	7.5	3
0	5419	7.5	3
0	5420	7.5	3
0	5437	7.55	3
0	5438	7.55	3
0	5439	7.55	3
0	5440	7.55	3
0	5449	7.6	3
0	5450	7.6	3
0	5451	7.6	3
0	5452	7.6	3
0	5457	7.6	3
0	5458	7.6	3
0	5459	7.6	3
0	5460	7.6	3
0	5477	7.65	3
0	5478	7.65	3
0	5479	7.65	3
0	5480	7.65	3
0	5489	7.7	3
0	5490	7.7	3
0	5491	7.7	3
0	5492	7.7	3
0	5497	7.7	3
0	5498	7.7	3
0	5499	7.7	3
0	5500	7.7	3
0	5677	7.75	3
0	5678	7.75	3
0	5679	7.75	3
0	5680	7.75	3
0	5709	7.8	3
0	5710	7.8	3
0	5711	7.8	3
0	5712	7.8	3
0	5717	7.8	3
0	5718	7.8	3
0	5719	7.8	3
0	5720	7.8	3
0	5737	7.85	3
0	5738	7.85	3
0	5739	7.85	3
0	5740	7.85	3
0	5749	7.9	3
0	5750	7.9	3
0	5751	7.9	3
0	5752	7.9	3
0	5757	7.9	3
0	5758	7.9	3
0	5759	7.9	3
0	5760	7.9	3
0	5777	7.95	3
0	5778	7.95	3
0	5779	7.95	3
0	5780	7.95	3
0	5789	8	3
0	5790	8	3
0	5791	8	3
0	5792	8	3
0	5797	8	3
0	5798	8	3
0	5799	8	3
0	5800	8	3
0	5817	8.05	3
0	5818	8.05	3
0	5819	8.05	3
0	5820	8.05	3
0	5832	8.1	3
0	5833	8.1	3
0	5834	8.1	3
0	5835	8.1	3
0	5840	8.1	3
0	5841	8.1	3
0	5842	8.1	3
0	5843	8.1	3
0	5863	8.15	3
0	5864	8.15	3
0	5865	8.15	3
0	5866	8.15	3
0	5875	8.2	3
0	5876	8.2	3
0	5877	8.2	3
0	5878	8.2	3
0	5883	8.2	3
0	5884	8.2	3
0	5885	8.2	3
0	5886	8.2	3
0	5903	8.25	3
0	5904	8.25	3
0	5905	8.25	3
0	5906	8.25	3
0	6081	8.3	3
0	6082	8.3	3
0	6083	8.3	3
0	6084	8.3	3
0	6089	8.3	3
0	6090	8.3	3
0	6091	8.3	3
0	6092	8.3	3
0	6159	8.35	3
0	6160	8.35	3
0	6161	8.35	3
0	6162	8.35	3
0	6171	8.4	3
0	6172	8.4	3
0	6173	8.4	3
0	6174	8.4	3
0	6179	8.4	3
0	6180	8.4	3
0	6181	8.4	3
0	6182	8.4	3
0	6199	8.45	3
0	6200	8.45	3
0	6201	8.45	3
0	6202	8.45	3
0	6211	8.5	3
0	6212	8.5	3
0	6213	8.5	3
0	6214	8.5	3
0	6219	8.5	3
0	6220	8.5	3
0	6221	8.5	3
0	6222	8.5	3
0	6239	8.55	3
0	6240	8.55	3
0	6241	8.55	3
0	6242	8.55	3
0	6251	8.6	3
0	6252	8.6	3
0	6253	8.6	3
0	6254	8.6	3
0	6259	8.6	3
0	6260	8.6	3
0	6261	8.6	3
0	6262	8.6	3
0	6279	8.65	3
0	6280	8.65	3
0	6281	8.65	3
0	6282	8.65	3
0	6291	8.7	3
0	6292	8.7	3
0	6293	8.7	3
0	6294	8.7	3
0	6299	8.7	3
0	6300	8.7	3
0	6301	8.7	3
0	6302	8.7	3
0	6319	8.75	3
0	6320	8.75	3
0	6321	8.75	3
0	6322	8.75	3
0	6331	8.8	3
0	6332	8.8	3
0	6333	8.8	3
0	6334	8.8	3
0	6339	8.8	3
0	6340	8.8	3
0	6341	8.8	3
0	6342	8.8	3
0	6519	8.85	3
0	6520	8.85	3
0	6521	8.85	3
0	6522	8.85	3
0	6551	8.9	3
0	6552	8.9	3
0	6553	8.9	3
0	6554	8.9	3
0	6559	8.9	3
0	6560	8.9	3
0	6561	8.9	3
0	6562	8.9	3
0	6579	8.95	3
0	6580	8.95	3
0	6581	8.95	3
0	6582	8.95	3
0	6591	9	3
0	6592	9	3
0	6593	9	3
0	6594	9	3
0	6599	9	3
0	6600	9	3
0	6601	9	3
0	6602	9	3
0	6619	9.05	3
0	6620	9.05	3
0	6621	9.05	3
0	6622	9.05	3
0	6634	9.1	3
0	6635	9.1	3
0	6636	9.1	3
0	6637	9.1	3
0	6642	9.1	3
0	6643	9.1	3
0	6644	9.1	3
0	6645	9.1	3
0	6665	9.15	3
0	6666	9.15	3
0	6667	9.15	3
0	6668	9.15	3
0	6677	9.2	3
0	6678	9.2	3
0	6679	9.2	3
0	6680	9.2	3
0	6685	9.2	3
0	6686	9.2	3
0	6687	9.2	3
0	6688	9.2	3
0	6705	9.25	3
0	6706	9.25	3
0	6707	9.25	3
0	6708	9.25	3
0	6717	9.3	3
0	6718	9.3	3
0	6719	9.3	3
0	6720	9.3	3
0	6725	9.3	3
0	6726	9.3	3
0	6727	9.3	3
0	6728	9.3	3
0	6745	9.35	3
0	6746	9.35	3
0	6747	9.35	3
0	6748	9.35	3
0	6923	9.4	3
0	6924	9.4	3
0	6925	9.4	3
0	6926	9.4	3
0	6931	9.4	3
0	6932	9.4	3
0	6933	9.4	3
0	6934	9.4	3
0	7001	9.45	3
0	7002	9.45	3
0	7003	9.45	3
0	7004	9.45	3
0	7013	9.5	3
0	7014	9.5	3
0	7015	9.5	3
0	7016	9.5	3
0	7021	9.5	3
0	7022	9.5	3
0	7023	9.5	3
0	7024	9.5	3
0	7041	9.55	3
0	7042	9.55	3
0	7043	9.55	3
0	7044	9.55	3
0	7053	9.6	3
0	7054	9.6	3
0	7055	9.6	3
0	7056	9.6	3
0	7061	9.6	3
0	7062	9.6	3
0	7063	9.6	3
0	7064	9.6	3
0	7081	9.65	3
0	7082	9.65	3
0	7083	9.65	3
0	7084	9.65	3
0	7093	9.7	3
0	7094	9.7	3
0	7095	9.7	3
0	7096	9.7	3
0	7101	9.7	3
0	7102	9.7	3
0	7103	9.7	3
0	7104	9.7	3
0	7121	9.75	3
0	7122	9.75	3
0	7123	9.75	3
0	7124	9.75	3
0	7133	9.8	3
0	7134	9.8	3
0	7135	9.8	3
0	7136	9.8	3
0	7141	9.8	3
0	7142	9.8	3
0	7143	9.8	3
0	7144	9.8	3
0	7161	9.85	3
0	7162	9.85	3
0	7163	9.85	3
0	7164	9.85	3
0	7173	9.9	3
0	7174	9.9	3
0	7175	9.9	3
0	7176	9.9	3
0	7181	9.9	3
0	7182	9.9	3
0	7183	9.9	3
0	7184	9.9	3
0	7361	9.95	3
0	7362	9.95	3
0	7363	9.95	3
0	7364	9.95	3
0	7393	10	3
0	7394	10	3
0	7395	10	3
0	7396	10	3
0	7401	10	3
0	7402	10	3
0	7403	10	3
0	7404	10	3
0	7421	10.05	3
0	7422	10.05	3
0	7423	10.05	3
0	7424	10.05	3
0	7436	10.1	3
0	7437	10.1	3
0	7438	10.1	3
0	7439	10.1	3
0	7444	10.1	3
0	7445	10.1	3
0	7446	10.1	3
0	7447	10.1	3
0	7467	10.15	3
0	7468	10.15	3
0	7469	10.15	3
0	7470	10.15	3
0	7479	10.2	3
0	7480	10.2	3
0	7481	10.2	3
0	7482	10.2	3
0	7487	10.2	3
0	7488	10.2	3
0	7489	10.2	3
0	7490	10.2	3
0	7507	10.25	3
0	7508	10.25	3
0	7509	10.25	3
0	7510	10.25	3
0	7519	10.3	3
0	7520	10.3	3
0	7521	10.3	3
0	7522	10.3	3
0	7527	10.3	3
0	7528	10.3	3
0	7529	10.3	3
0	7530	10.3	3
0	7547	10.35	3
0	7548	10.35	3
0	7549	10.35	3
0	7550	10.35	3
0	7559	10.4	3
0	7560	10.4	3
0	7561	10.4	3
0	7562	10.4	3
0	7567	10.4	3
0	7568	10.4	3
0	7569	10.4	3
0	7570	10.4	3
0	7587	10.45	3
0	7588	10.45	3
0	7589	10.45	3
0	7590	10.45	3
0	7763	10.5	3
0	7764	10.5	3
0	7765	10.5	3
0	7766	10.5	3
0	7771	10.5	3
0	7772	10.5	3
0	7773	10.5	3
0	7774	10.5	3
0	7831	10.55	3
0	7832	10.55	3
0	7833	10.55	3
0	7834	10.55	3
0	7843	10.6	3
0	7844	10.6	3
0	7845	10.6	3
0	7846	10.6	3
0	7851	10.6	3
0	7852	10.6	3
0	7853	10.6	3
0	7854	10.6	3
0	7871	10.65	3
0	7872	10.65	3
0	7873	10.65	3
0	7874	10.65	3
0	7883	10.7	3
0	7884	10.7	3
0	7885	10.7	3
0	7886	10.7	3
0	7891	10.7	3
0	7892	10.7	3
0	7893	10.7	3
0	7894	10.7	3
0	7911	10.75	3
0	7912	10.75	3
0	7913	10.75	3
0	7914	10.75	3
0	7923	10.8	3
0	7924	10.8	3
0	7925	10.8	3
0	7926	10.8	3
0	7931	10.8	3
0	7932	10.8	3
0	7933	10.8	3
0	7934	10.8	3
0	7951	10.85	3
0	7952	10.85	3
0	7953	10.85	3
0	7954	10.85	3
0	7963	10.9	3
0	7964	10.9	3
0	7965	10.9	3
0	7966	10.9	3
0	7971	10.9	3
0	7972	10.9	3
0	7973	10.9	3
0	7974	10.9	3
0	7991	10.95	3
0	7992	10.95	3
0	7993	10.95	3
0	7994	10.95	3
0	8003	11	3
0	8004	11	3
0	8005	11	3
0	8006	11	3
0	8011	11	3
0	8012	11	3
0	8013	11	3
0	8014	11	3
0	8189	11.05	3
0	8190	11.05	3
0	8191	11.05	3
0	8192	11.05	3
0	8214	11.1	3
0	8215	11.1	3
0	8216	11.1	3
0	8217	11.1	3
0	8222	11.1	3
0	8223	11.1	3
0	8224	11.1	3
0	8225	11.1	3
0	8245	11.15	3
0	8246	11.15	3
0	8247	11.15	3
0	8248	11.15	3
0	8257	11.2	3
0	8258	11.2	3
0	8259	11.2	3
0	8260	11.2	3
0	8265	11.2	3
0	8266	11.2	3
0	8267	11.2	3
0	8268	11.2	3
0	8285	11.25	3
0	8286	11.25	3
0	8287	11.25	3
0	8288	11.25	3
0	8297	11.3	3
0	8298	11.3	3
0	8299	11.3	3
0	8300	11.3	3
0	8305	11.3	3
0	8306	11.3	3
0	8307	11.3	3
0	8308	11.3	3
0	8325	11.35	3
0	8326	11.35	3
0	8327	11.35	3
0	8328	11.35	3
0	8337	11.4	3
0	8338	11.4	3
0	8339	11.4	3
0	8340	11.4	3
0	8345	11.4	3
0	8346	11.4	3
0	8347	11.4	3
0	8348	11.4	3
0	8365	11.45	3
0	8366	11.45	3
0	8367	11.45	3
0	8368	11.45	3
0	8377	11.5	3
0	8378	11.5	3
0	8379	11.5	3
0	8380	11.5	3
0	8385	11.5	3
0	8386	11.5	3
0	8387	11.5	3
0	8388	11.5	3
0	8405	11.55	3
0	8406	11.55	3
0	8407	11.55	3
0	8408	11.55	3
0	8569	11.6	3
0	8570	11.6	3
0	8571	11.6	3
0	8572	11.6	3
0	8577	11.6	3
0	8578	11.6	3
0	8579	11.6	3
0	8580	11.6	3
0	8627	11.65	3
0	8628	11.65	3
0	8629	11.65	3
0	8630	11.65	3
0	8639	11.7	3
0	8640	11.7	3
0	8641	11.7	3
0	8642	11.7	3
0	8647	11.7	3
0	8648	11.7	3
0	8649	11.7	3
0	8650	11.7	3
0	8667	11.75	3
0	8668	11.75	3
0	8669	11.75	3
0	8670	11.75	3
0	8679	11.8	3
0	8680	11.8	3
0	8681	11.8	3
0	8682	11.8	3
0	8687	11.8	3
0	8688	11.8	3
0	8689	11.8	3
0	8690	11.8	3
0	8707	11.85	3
0	8708	11.85	3
0	8709	11.85	3
0	8710	11.85	3
0	8719	11.9	3
0	8720	11.9	3
0	8721	11.9	3
0	8722	11.9	3
0	8727	11.9	3
0	8728	11.9	3
0	8729	11.9	3
0	8730	11.9	3
0	8747	11.95	3
0	8748	11.95	3
0	8749	11.95	3
0	8750	11.95	3
0	8759	12	3
0	8760	12	3
0	8761	12	3
0	8762	12	3
0	8767	12	3
0	8768	12	3
0	8769	12	3
0	8770	12	3
0	8787	12.05	3
0	8788	12.05	3
0	8789	12.05	3
0	8790	12.05	3
0	8802	12.1	3
0	8803	12.1	3
0	8804	12.1	3
0	8805	12.1	3
0	8810	12.1	3
0	8811	12.1	3
0	8812	12.1	3
0	8813	12.1	3
0	8982	12.15	3
0	8983	12.15	3
0	8984	12.15	3
0	8985	12.15	3
0	9024	12.2	3
0	9025	12.2	3
0	9026	12.2	3
0	9027	12.2	3
0	9032	12.2	3
0	9033	12.2	3
0	9034	12.2	3
0	9035	12.2	3
0	9052	12.25	3
0	9053	12.25	3
0	9054	12.25	3
0	9055	12.25	3
0	9077	12.3	3
0	9078	12.3	3
0	9079	12.3	3
0	9080	12.3	3
0	9085	12.3	3
0	9086	12.3	3
0	9087	12.3	3
0	9088	12.3	3
0	9105	12.35	3
0	9106	12.35	3
0	9107	12.35	3
0	9108	12.35	3
0	9117	12.4	3
0	9118	12.4	3
0	9119	12.4	3
0	9120	12.4	3
0	9125	12.4	3
0	9126	12.4	3
0	9127	12.4	3
0	9128	12.4	3
0	9145	12.45	3
0	9146	12.45	3
0	9147	12.45	3
0	9148	12.45	3
0	9157	12.5	3
0	9158	12.5	3
0	9159	12.5	3
0	9160	12.5	3
0	9165	12.5	3
0	9166	12.5	3
0	9167	12.5	3
0	9168	12.5	3
0	9185	12.55	3
0	9186	12.55	3
0	9187	12.55	3
0	9188	12.55	3
0	9197	12.6	3
0	9198	12.6	3
0	9199	12.6	3
0	9200	12.6	3
0	9205	12.6	3
0	9206	12.6	3
0	9207	12.6	3
0	9208	12.6	3
0	9225	12.65	3
0	9226	12.65	3
0	9227	12.65	3
0	9228	12.65	3
0	9380	12.7	3
0	9381	12.7	3
0	9382	12.7	3
0	9383	12.7	3
0	9388	12.7	3
0	9389	12.7	3
0	9390	12.7	3
0	9391	12.7	3
0	9408	12.75	3
0	9409	12.75	3
0	9410	12.75	3
0	9411	12.75	3
0	9420	12.8	3
0	9421	12.8	3
0	9422	12.8	3
0	9423	12.8	3
0	9428	12.8	3
0	9429	12.8	3
0	9430	12.8	3
0	9431	12.8	3
0	9476	12.85	3
0	9477	12.85	3
0	9478	12.85	3
0	9479	12.85	3
0	9488	12.9	3
0	9489	12.9	3
0	9490	12.9	3
0	9491	12.9	3
0	9496	12.9	3
0	9497	12.9	3
0	9498	12.9	3
0	9499	12.9	3
0	9516	12.95	3
0	9517	12.95	3
0	9518	12.95	3
0	9519	12.95	3
0	9528	13	3
0	9529	13	3
0	9530	13	3
0	9531	13	3
0	9536	13	3
0	9537	13	3
0	9538	13	3
0	9539	13	3
0	9556	13.05	3
0	9557	13.05	3
0	9558	13.05	3
0	9559	13.05	3
0	9571	13.1	3
0	9572	13.1	3
0	9573	13.1	3
0	9574	13.1	3
0	9579	13.1	3
0	9580	13.1	3
0	9581	13.1	3
0	9582	13.1	3
0	9602	13.15	3
0	9603	13.15	3
0	9604	13.15	3
0	9605	13.15	3
0	9614	13.2	3
0	9615	13.2	3
0	9616	13.2	3
0	9617	13.2	3
0	9622	13.2	3
0	9623	13.2	3
0	9624	13.2	3
0	9625	13.2	3
0	9789	13.25	3
0	9790	13.25	3
0	9791	13.25	3
0	9792	13.25	3
0	9821	13.3	3
0	9822	13.3	3
0	9823	13.3	3
0	9824	13.3	3
0	9829	13.3	3
0	9830	13.3	3
0	9831	13.3	3
0	9832	13.3	3
0	9849	13.35	3
0	9850	13.35	3
0	9851	13.35	3
0	9852	13.35	3
0	9898	13.4	3
0	9899	13.4	3
0	9900	13.4	3
0	9901	13.4	3
0	9906	13.4	3
0	9907	13.4	3
0	9908	13.4	3
0	9909	13.4	3
0	9926	13.45	3
0	9927	13.45	3
0	9928	13.45	3
0	9929	13.45	3
0	9938	13.5	3
0	9939	13.5	3
0	9940	13.5	3
0	9941	13.5	3
0	9946	13.5	3
0	9947	13.5	3
0	9948	13.5	3
0	9949	13.5	3
0	9966	13.55	3
0	9967	13.55	3
0	9968	13.55	3
0	9969	13.55	3
0	9978	13.6	3
0	9979	13.6	3
0	9980	13.6	3
0	9981	13.6	3
0	9986	13.6	3
0	9987	13.6	3
0	9988	13.6	3
0	9989	13.6	3
0	10006	13.65	3
0	10007	13.65	3
0	10008	13.65	3
0	10009	13.65	3
0	10018	13.7	3
0	10019	13.7	3
0	10020	13.7	3
0	10021	13.7	3
0	10026	13.7	3
0	10027	13.7	3
0	10028	13.7	3
0	10029	13.7	3
0	10046	13.75	3
0	10047	13.75	3
0	10048	13.75	3
0	10049	13.75	3
0	10201	13.8	3
0	10202	13.8	3
0	10203	13.8	3
0	10204	13.8	3
0	10209	13.8	3
0	10210	13.8	3
0	10211	13.8	3
0	10212	13.8	3
0	10229	13.85	3
0	10230	13.85	3
0	10231	13.85	3
0	10232	13.85	3
0	10241	13.9	3
0	10242	13.9	3
0	10243	13.9	3
0	10244	13.9	3
0	10249	13.9	3
0	10250	13.9	3
0	10251	13.9	3
0	10252	13.9	3
0	10279	13.95	3
0	10280	13.95	3
0	10281	13.95	3
0	10282	13.95	3
0	10291	14	3
0	10292	14	3
0	10293	14	3
0	10294	14	3
0	10299	14	3
0	10300	14	3
0	10301	14	3
0	10302	14	3
0	10319	14.05	3
0	10320	14.05	3
0	10321	14.05	3
0	10322	14.05	3
0	10334	14.1	3
0	10335	14.1	3
0	10336	14.1	3
0	10337	14.1	3
0	10342	14.1	3
0	10343	14.1	3
0	10344	14.1	3
0	10345	14.1	3
0	10365	14.15	3
0	10366	14.15	3
0	10367	14.15	3
0	10368	14.15	3
0	10377	14.2	3
0	10378	14.2	3
0	10379	14.2	3
0	10380	14.2	3
0	10385	14.2	3
0	10386	14.2	3
0	10387	14.2	3
0	10388	14.2	3
0	10405	14.25	3
0	10406	14.25	3
0	10407	14.25	3
0	10408	14.25	3
0	10417	14.3	3
0	10418	14.3	3
0	10419	14.3	3
0	10420	14.3	3
0	10425	14.3	3
0	10426	14.3	3
0	10427	14.3	3
0	10428	14.3	3
0	10572	14.35	3
0	10573	14.35	3
0	10574	14.35	3
0	10575	14.35	3
0	10604	14.4	3
0	10605	14.4	3
0	10606	14.4	3
0	10607	14.4	3
0	10612	14.4	3
0	10613	14.4	3
0	10614	14.4	3
0	10615	14.4	3
0	10632	14.45	3
0	10633	14.45	3
0	10634	14.45	3
0	10635	14.45	3
0	10644	14.5	3
0	10645	14.5	3
0	10646	14.5	3
0	10647	14.5	3
0	10652	14.5	3
0	10653	14.5	3
0	10654	14.5	3
0	10655	14.5	3
0	10672	14.55	3
0	10673	14.55	3
0	10674	14.55	3
0	10675	14.55	3
0	10684	14.6	3
0	10685	14.6	3
0	10686	14.6	3
0	10687	14.6	3
0	10692	14.6	3
0	10693	14.6	3
0	10694	14.6	3
0	10695	14.6	3
0	10712	14.65	3
0	10713	14.65	3
0	10714	14.65	3
0	10715	14.65	3
0	10724	14.7	3
0	10725	14.7	3
0	10726	14.7	3
0	10727	14.7	3
0	10732	14.7	3
0	10733	14.7	3
0	10734	14.7	3
0	10735	14.7	3
0	10752	14.75	3
0	10753	14.75	3
0	10754	14.75	3
0	10755	14.75	3
0	10764	14.8	3
0	10765	14.8	3
0	10766	14.8	3
0	10767	14.8	3
0	10772	14.8	3
0	10773	14.8	3
0	10774	14.8	3
0	10775	14.8	3
0	10792	14.85	3
0	10793	14.85	3
0	10794	14.85	3
0	10795	14.85	3
0	10921	14.9	3
0	10922	14.9	3
0	10923	14.9	3
0	10924	14.9	3
0	10929	14.9	3
0	10930	14.9	3
0	10931	14.9	3
0	10932	14.9	3
0	10949	14.95	3
0	10950	14.95	3
0	10951	14.95	3
0	10952	14.95	3
0	10961	15	3
0	10962	15	3
0	10963	15	3
0	10964	15	3
0	10969	15	3
0	10970	15	3
0	10971	15	3
0	10972	15	3
0	11002	15.05	3
0	11003	15.05	3
0	11004	15.05	3
0	11005	15.05	3
0	11017	15.1	3
0	11018	15.1	3
0	11019	15.1	3
0	11020	15.1	3
0	11025	15.1	3
0	11026	15.1	3
0	11027	15.1	3
0	11028	15.1	3
0	11048	15.15	3
0	11049	15.15	3
0	11050	15.15	3
0	11051	15.15	3
0	11060	15.2	3
0	11061	15.2	3
0	11062	15.2	3
0	11063	15.2	3
0	11068	15.2	3
0	11069	15.2	3
0	11070	15.2	3
0	11071	15.2	3
0	11088	15.25	3
0	11089	15.25	3
0	11090	15.25	3
0	11091	15.25	3
0	11100	15.3	3
0	11101	15.3	3
0	11102	15.3	3
0	11103	15.3	3
0	11108	15.3	3
0	11109	15.3	3
0	11110	15.3	3
0	11111	15.3	3
0	11128	15.35	3
0	11129	15.35	3
0	11130	15.35	3
0	11131	15.35	3
0	11140	15.4	3
0	11141	15.4	3
0	11142	15.4	3
0	11143	15.4	3
0	11148	15.4	3
0	11149	15.4	3
0	11150	15.4	3
0	11151	15.4	3
0	11299	15.45	3
0	11300	15.45	3
0	11301	15.45	3
0	11302	15.45	3
0	11321	15.5	3
0	11322	15.5	3
0	11323	15.5	3
0	11324	15.5	3
0	11329	15.5	3
0	11330	15.5	3
0	11331	15.5	3
0	11332	15.5	3
0	11386	15.55	3
0	11387	15.55	3
0	11388	15.55	3
0	11389	15.55	3
0	11411	15.6	3
0	11412	15.6	3
0	11413	15.6	3
0	11414	15.6	3
0	11419	15.6	3
0	11420	15.6	3
0	11421	15.6	3
0	11422	15.6	3
0	11439	15.65	3
0	11440	15.65	3
0	11441	15.65	3
0	11442	15.65	3
0	11464	15.7	3
0	11465	15.7	3
0	11466	15.7	3
0	11467	15.7	3
0	11472	15.7	3
0	11473	15.7	3
0	11474	15.7	3
0	11475	15.7	3
0	11492	15.75	3
0	11493	15.75	3
0	11494	15.75	3
0	11495	15.75	3
0	11504	15.8	3
0	11505	15.8	3
0	11506	15.8	3
0	11507	15.8	3
0	11512	15.8	3
0	11513	15.8	3
0	11514	15.8	3
0	11515	15.8	3
0	11532	15.85	3
0	11533	15.85	3
0	11534	15.85	3
0	11535	15.85	3
0	11544	15.9	3
0	11545	15.9	3
0	11546	15.9	3
0	11547	15.9	3
0	11552	15.9	3
0	11553	15.9	3
0	11554	15.9	3
0	11555	15.9	3
0	11572	15.95	3
0	11573	15.95	3
0	11574	15.95	3
0	11575	15.95	3
0	11701	16	3
0	11702	16	3
0	11703	16	3
0	11704	16	3
0	11709	16	3
0	11710	16	3
0	11711	16	3
0	11712	16	3
0	11729	16.05	3
0	11730	16.05	3
0	11731	16.05	3
0	11732	16.05	3
0	11757	16.1	3
0	11758	16.1	3
0	11759	16.1	3
0	11760	16.1	3
0	11765	16.1	3
0	11766	16.1	3
0	11767	16.1	3
0	11768	16.1	3
0	11801	16.15	3
0	11802	16.15	3
0	11803	16.15	3
0	11804	16.15	3
0	11813	16.2	3
0	11814	16.2	3
0	11815	16.2	3
0	11816	16.2	3
0	11821	16.2	3
0	11822	16.2	3
0	11823	16.2	3
0	11824	16.2	3
0	11854	16.25	3
0	11855	16.25	3
0	11856	16.25	3
0	11857	16.25	3
0	11866	16.3	3
0	11867	16.3	3
0	11868	16.3	3
0	11869	16.3	3
0	11874	16.3	3
0	11875	16.3	3
0	11876	16.3	3
0	11877	16.3	3
0	11894	16.35	3
0	11895	16.35	3
0	11896	16.35	3
0	11897	16.35	3
0	11906	16.4	3
0	11907	16.4	3
0	11908	16.4	3
0	11909	16.4	3
0	11914	16.4	3
0	11915	16.4	3
0	11916	16.4	3
0	11917	16.4	3
0	11934	16.45	3
0	11935	16.45	3
0	11936	16.45	3
0	11937	16.45	3
0	11946	16.5	3
0	11947	16.5	3
0	11948	16.5	3
0	11949	16.5	3
0	11954	16.5	3
0	11955	16.5	3
0	11956	16.5	3
0	11957	16.5	3
0	12105	16.55	3
0	12106	16.55	3
0	12107	16.55	3
0	12108	16.55	3
0	12127	16.6	3
0	12128	16.6	3
0	12129	16.6	3
0	12130	16.6	3
0	12135	16.6	3
0	12136	16.6	3
0	12137	16.6	3
0	12138	16.6	3
0	12180	16.65	3
0	12181	16.65	3
0	12182	16.65	3
0	12183	16.65	3
0	12205	16.7	3
0	12206	16.7	3
0	12207	16.7	3
0	12208	16.7	3
0	12213	16.7	3
0	12214	16.7	3
0	12215	16.7	3
0	12216	16.7	3
0	12233	16.75	3
0	12234	16.75	3
0	12235	16.75	3
0	12236	16.75	3
0	12258	16.8	3
0	12259	16.8	3
0	12260	16.8	3
0	12261	16.8	3
0	12266	16.8	3
0	12267	16.8	3
0	12268	16.8	3
0	12269	16.8	3
0	12286	16.85	3
0	12287	16.85	3
0	12288	16.85	3
0	12289	16.85	3
0	12298	16.9	3
0	12299	16.9	3
0	12300	16.9	3
0	12301	16.9	3
0	12306	16.9	3
0	12307	16.9	3
0	12308	16.9	3
0	12309	16.9	3
0	12326	16.95	3
0	12327	16.95	3
0	12328	16.95	3
0	12329	16.95	3
0	12338	17	3
0	12339	17	3
0	12340	17	3
0	12341	17	3
0	12346	17	3
0	12347	17	3
0	12348	17	3
0	12349	17	3
0	12366	17.05	3
0	12367	17.05	3
0	12368	17.05	3
0	12369	17.05	3
0	12498	17.1	3
0	12499	17.1	3
0	12500	17.1	3
0	12501	17.1	3
0	12506	17.1	3
0	12507	17.1	3
0	12508	17.1	3
0	12509	17.1	3
0	12529	17.15	3
0	12530	17.15	3
0	12531	17.15	3
0	12532	17.15	3
0	12563	17.2	3
0	12564	17.2	3
0	12565	17.2	3
0	12566	17.2	3
0	12571	17.2	3
0	12572	17.2	3
0	12573	17.2	3
0	12574	17.2	3
0	12604	17.25	3
0	12605	17.25	3
0	12606	17.25	3
0	12607	17.25	3
0	12616	17.3	3
0	12617	17.3	3
0	12618	17.3	3
0	12619	17.3	3
0	12624	17.3	3
0	12625	17.3	3
0	12626	17.3	3
0	12627	17.3	3
0	12657	17.35	3
0	12658	17.35	3
0	12659	17.35	3
0	12660	17.35	3
0	12669	17.4	3
0	12670	17.4	3
0	12671	17.4	3
0	12672	17.4	3
0	12677	17.4	3
0	12678	17.4	3
0	12679	17.4	3
0	12680	17.4	3
0	12697	17.45	3
0	12698	17.45	3
0	12699	17.45	3
0	12700	17.45	3
0	12709	17.5	3
0	12710	17.5	3
0	12711	17.5	3
0	12712	17.5	3
0	12717	17.5	3
0	12718	17.5	3
0	12719	17.5	3
0	12720	17.5	3
0	12737	17.55	3
0	12738	17.55	3
0	12739	17.55	3
0	12740	17.55	3
0	12749	17.6	3
0	12750	17.6	3
0	12751	17.6	3
0	12752	17.6	3
0	12757	17.6	3
0	12758	17.6	3
0	12759	17.6	3
0	12760	17.6	3
0	12908	17.65	3
0	12909	17.65	3
0	12910	17.65	3
0	12911	17.65	3
0	12930	17.7	3
0	12931	17.7	3
0	12932	17.7	3
0	12933	17.7	3
0	12938	17.7	3
0	12939	17.7	3
0	12940	17.7	3
0	12941	17.7	3
0	12968	17.75	3
0	12969	17.75	3
0	12970	17.75	3
0	12971	17.75	3
0	12993	17.8	3
0	12994	17.8	3
0	12995	17.8	3
0	12996	17.8	3
0	13001	17.8	3
0	13002	17.8	3
0	13003	17.8	3
0	13004	17.8	3
0	13021	17.85	3
0	13022	17.85	3
0	13023	17.85	3
0	13024	17.85	3
0	13046	17.9	3
0	13047	17.9	3
0	13048	17.9	3
0	13049	17.9	3
0	13054	17.9	3
0	13055	17.9	3
0	13056	17.9	3
0	13057	17.9	3
0	13074	17.95	3
0	13075	17.95	3
0	13076	17.95	3
0	13077	17.95	3
0	13086	18	3
0	13087	18	3
0	13088	18	3
0	13089	18	3
0	13094	18	3
0	13095	18	3
0	13096	18	3
0	13097	18	3
0	13114	18.05	3
0	13115	18.05	3
0	13116	18.05	3
0	13117	18.05	3
0	13129	18.1	3
0	13130	18.1	3
0	13131	18.1	3
0	13132	18.1	3
0	13137	18.1	3
0	13138	18.1	3
0	13139	18.1	3
0	13140	18.1	3
0	13160	18.15	3
0	13161	18.15	3
0	13162	18.15	3
0	13163	18.15	3
0	13303	18.2	3
0	13304	18.2	3
0	13305	18.2	3
0	13306	18.2	3
0	13311	18.2	3
0	13312	18.2	3
0	13313	18.2	3
0	13314	18.2	3
0	13341	18.25	3
0	13342	18.25	3
0	13343	18.25	3
0	13344	18.25	3
0	13390	18.3	3
0	13391	18.3	3
0	13392	18.3	3
0	13393	18.3	3
0	13398	18.3	3
0	13399	18.3	3
0	13400	18.3	3
0	13401	18.3	3
0	13421	18.35	3
0	13422	18.35	3
0	13423	18.35	3
0	13424	18.35	3
0	13433	18.4	3
0	13434	18.4	3
0	13435	18.4	3
0	13436	18.4	3
0	13441	18.4	3
0	13442	18.4	3
0	13443	18.4	3
0	13444	18.4	3
0	13464	18.45	3
0	13465	18.45	3
0	13466	18.45	3
0	13467	18.45	3
0	13476	18.5	3
0	13477	18.5	3
0	13478	18.5	3
0	13479	18.5	3
0	13484	18.5	3
0	13485	18.5	3
0	13486	18.5	3
0	13487	18.5	3
0	13504	18.55	3
0	13505	18.55	3
0	13506	18.55	3
0	13507	18.55	3
0	13516	18.6	3
0	13517	18.6	3
0	13518	18.6	3
0	13519	18.6	3
0	13524	18.6	3
0	13525	18.6	3
0	13526	18.6	3
0	13527	18.6	3
0	13544	18.65	3
0	13545	18.65	3
0	13546	18.65	3
0	13547	18.65	3
0	13556	18.7	3
0	13557	18.7	3
0	13558	18.7	3
0	13559	18.7	3
0	13564	18.7	3
0	13565	18.7	3
0	13566	18.7	3
0	13567	18.7	3
0	13678	18.75	3
0	13679	18.75	3
0	13680	18.75	3
0	13681	18.75	3
0	13690	18.8	3
0	13691	18.8	3
0	13692	18.8	3
0	13693	18.8	3
0	13698	18.8	3
0	13699	18.8	3
0	13700	18.8	3
0	13701	18.8	3
0	13718	18.85	3
0	13719	18.85	3
0	13720	18.85	3
0	13721	18.85	3
0	13730	18.9	3
0	13731	18.9	3
0	13732	18.9	3
0	13733	18.9	3
0	13738	18.9	3
0	13739	18.9	3
0	13740	18.9	3
0	13741	18.9	3
0	13758	18.95	3
0	13759	18.95	3
0	13760	18.95	3
0	13761	18.95	3
0	13770	19	3
0	13771	19	3
0	13772	19	3
0	13773	19	3
0	13778	19	3
0	13779	19	3
0	13780	19	3
0	13781	19	3
0	13798	19.05	3
0	13799	19.05	3
0	13800	19.05	3
0	13801	19.05	3
0	13813	19.1	3
0	13814	19.1	3
0	13815	19.1	3
0	13816	19.1	3
0	13821	19.1	3
0	13822	19.1	3
0	13823	19.1	3
0	13824	19.1	3
0	13844	19.15	3
0	13845	19.15	3
0	13846	19.15	3
0	13847	19.15	3
0	13856	19.2	3
0	13857	19.2	3
0	13858	19.2	3
0	13859	19.2	3
0	13864	19.2	3
0	13865	19.2	3
0	13866	19.2	3
0	13867	19.2	3
0	13884	19.25	3
0	13885	19.25	3
0	13886	19.25	3
0	13887	19.25	3
0	14011	19.3	3
0	14012	19.3	3
0	14013	19.3	3
0	14014	19.3	3
0	14019	19.3	3
0	14020	19.3	3
0	14021	19.3	3
0	14022	19.3	3
0	14039	19.35	3
0	14040	19.35	3
0	14041	19.35	3
0	14042	19.35	3
0	14051	19.4	3
0	14052	19.4	3
0	14053	19.4	3
0	14054	19.4	3
0	14059	19.4	3
0	14060	19.4	3
0	14061	19.4	3
0	14062	19.4	3
0	14092	19.45	3
0	14093	19.45	3
0	14094	19.45	3
0	14095	19.45	3
0	14104	19.5	3
0	14105	19.5	3
0	14106	19.5	3
0	14107	19.5	3
0	14112	19.5	3
0	14113	19.5	3
0	14114	19.5	3
0	14115	19.5	3
0	14132	19.55	3
0	14133	19.55	3
0	14134	19.55	3
0	14135	19.55	3
0	14144	19.6	3
0	14145	19.6	3
0	14146	19.6	3
0	14147	19.6	3
0	14152	19.6	3
0	14153	19.6	3
0	14154	19.6	3
0	14155	19.6	3
0	14172	19.65	3
0	14173	19.65	3
0	14174	19.65	3
0	14175	19.65	3
0	14184	19.7	3
0	14185	19.7	3
0	14186	19.7	3
0	14187	19.7	3
0	14192	19.7	3
0	14193	19.7	3
0	14194	19.7	3
0	14195	19.7	3
0	14212	19.75	3
0	14213	19.75	3
0	14214	19.75	3
0	14215	19.75	3
0	14237	19.8	3
0	14238	19.8	3
0	14239	19.8	3
0	14240	19.8	3
0	14245	19.8	3
0	14246	19.8	3
0	14247	19.8	3
0	14248	19.8	3
0	14356	19.85	3
0	14357	19.85	3
0	14358	19.85	3
0	14359	19.85	3
0	14393	19.9	3
0	14394	19.9	3
0	14395	19.9	3
0	14396	19.9	3
0	14401	19.9	3
0	14402	19.9	3
0	14403	19.9	3
0	14404	19.9	3
0	14424	19.95	3
0	14425	19.95	3
0	14426	19.95	3
0	14427	19.95	3
0	14449	20	3
0	14450	20	3
0	14451	20	3
0	14452	20	3
0	14457	20	3
0	14458	20	3
0	14459	20	3
0	14460	20	3
0	14490	20.05	3
0	14491	20.05	3
0	14492	20.05	3
0	14493	20.05	3
0	14505	20.1	3
0	14506	20.1	3
0	14507	20.1	3
0	14508	20.1	3
0	14513	20.1	3
0	14514	20.1	3
0	14515	20.1	3
0	14516	20.1	3
0	14536	20.15	3
0	14537	20.15	3
0	14538	20.15	3
0	14539	20.15	3
0	14548	20.2	3
0	14549	20.2	3
0	14550	20.2	3
0	14551	20.2	3
0	14556	20.2	3
0	14557	20.2	3
0	14558	20.2	3
0	14559	20.2	3
0	14576	20.25	3
0	14577	20.25	3
0	14578	20.25	3
0	14579	20.25	3
0	14588	20.3	3
0	14589	20.3	3
0	14590	20.3	3
0	14591	20.3	3
0	14596	20.3	3
0	14597	20.3	3
0	14598	20.3	3
0	14599	20.3	3
0	14616	20.35	3
0	14617	20.35	3
0	14618	20.35	3
0	14619	20.35	3
0	14743	20.4	3
0	14744	20.4	3
0	14745	20.4	3
0	14746	20.4	3
0	14751	20.4	3
0	14752	20.4	3
0	14753	20.4	3
0	14754	20.4	3
0	14774	20.45	3
0	14775	20.45	3
0	14776	20.45	3
0	14777	20.45	3
0	14786	20.5	3
0	14787	20.5	3
0	14788	20.5	3
0	14789	20.5	3
0	14794	20.5	3
0	14795	20.5	3
0	14796	20.5	3
0	14797	20.5	3
0	14827	20.55	3
0	14828	20.55	3
0	14829	20.55	3
0	14830	20.55	3
0	14839	20.6	3
0	14840	20.6	3
0	14841	20.6	3
0	14842	20.6	3
0	14847	20.6	3
0	14848	20.6	3
0	14849	20.6	3
0	14850	20.6	3
0	14867	20.65	3
0	14868	20.65	3
0	14869	20.65	3
0	14870	20.65	3
0	14879	20.7	3
0	14880	20.7	3
0	14881	20.7	3
0	14882	20.7	3
0	14887	20.7	3
0	14888	20.7	3
0	14889	20.7	3
0	14890	20.7	3
0	14907	20.75	3
0	14908	20.75	3
0	14909	20.75	3
0	14910	20.75	3
0	14919	20.8	3
0	14920	20.8	3
0	14921	20.8	3
0	14922	20.8	3
0	14927	20.8	3
0	14928	20.8	3
0	14929	20.8	3
0	14930	20.8	3
0	14947	20.85	3
0	14948	20.85	3
0	14949	20.85	3
0	14950	20.85	3
0	14959	20.9	3
0	14960	20.9	3
0	14961	20.9	3
0	14962	20.9	3
0	14967	20.9	3
0	14968	20.9	3
0	14969	20.9	3
0	14970	20.9	3
0	15078	20.95	3
0	15079	20.95	3
0	15080	20.95	3
0	15081	20.95	3
0	15090	21	3
0	15091	21	3
0	15092	21	3
0	15093	21	3
0	15098	21	3
0	15099	21	3
0	15100	21	3
0	15101	21	3
0	15118	21.05	3
0	15119	21.05	3
0	15120	21.05	3
0	15121	21.05	3
0	15146	21.1	3
0	15147	21.1	3
0	15148	21.1	3
0	15149	21.1	3
0	15154	21.1	3
0	15155	21.1	3
0	15156	21.1	3
0	15157	21.1	3
0	15177	21.15	3
0	15178	21.15	3
0	15179	21.15	3
0	15180	21.15	3
0	15189	21.2	3
0	15190	21.2	3
0	15191	21.2	3
0	15192	21.2	3
0	15197	21.2	3
0	15198	21.2	3
0	15199	21.2	3
0	15200	21.2	3
0	15217	21.25	3
0	15218	21.25	3
0	15219	21.25	3
0	15220	21.25	3
0	15229	21.3	3
0	15230	21.3	3
0	15231	21.3	3
0	15232	21.3	3
0	15237	21.3	3
0	15238	21.3	3
0	15239	21.3	3
0	15240	21.3	3
0	15257	21.35	3
0	15258	21.35	3
0	15259	21.35	3
0	15260	21.35	3
0	15282	21.4	3
0	15283	21.4	3
0	15284	21.4	3
0	15285	21.4	3
0	15290	21.4	3
0	15291	21.4	3
0	15292	21.4	3
0	15293	21.4	3
0	15310	21.45	3
0	15311	21.45	3
0	15312	21.45	3
0	15313	21.45	3
0	15437	21.5	3
0	15438	21.5	3
0	15439	21.5	3
0	15440	21.5	3
0	15445	21.5	3
0	15446	21.5	3
0	15447	21.5	3
0	15448	21.5	3
0	15468	21.55	3
0	15469	21.55	3
0	15470	21.55	3
0	15471	21.55	3
0	15480	21.6	3
0	15481	21.6	3
0	15482	21.6	3
0	15483	21.6	3
0	15488	21.6	3
0	15489	21.6	3
0	15490	21.6	3
0	15491	21.6	3
0	15514	21.65	3
0	15515	21.65	3
0	15516	21.65	3
0	15517	21.65	3
0	15526	21.7	3
0	15527	21.7	3
0	15528	21.7	3
0	15529	21.7	3
0	15534	21.7	3
0	15535	21.7	3
0	15536	21.7	3
0	15537	21.7	3
0	15554	21.75	3
0	15555	21.75	3
0	15556	21.75	3
0	15557	21.75	3
0	15566	21.8	3
0	15567	21.8	3
0	15568	21.8	3
0	15569	21.8	3
0	15574	21.8	3
0	15575	21.8	3
0	15576	21.8	3
0	15577	21.8	3
0	15594	21.85	3
0	15595	21.85	3
0	15596	21.85	3
0	15597	21.85	3
0	15606	21.9	3
0	15607	21.9	3
0	15608	21.9	3
0	15609	21.9	3
0	15614	21.9	3
0	15615	21.9	3
0	15616	21.9	3
0	15617	21.9	3
0	15634	21.95	3
0	15635	21.95	3
0	15636	21.95	3
0	15637	21.95	3
0	15646	22	3
0	15647	22	3
0	15648	22	3
0	15649	22	3
0	15654	22	3
0	15655	22	3
0	15656	22	3
0	15657	22	3
0	15776	22.05	3
0	15777	22.05	3
0	15778	22.05	3
0	15779	22.05	3
0	15792	22.1	3
0	15793	22.1	3
0	15794	22.1	3
0	15795	22.1	3
0	15800	22.1	3
0	15801	22.1	3
0	15802	22.1	3
0	15803	22.1	3
0	15823	22.15	3
0	15824	22.15	3
0	15825	22.15	3
0	15826	22.15	3
0	15848	22.2	3
0	15849	22.2	3
0	15850	22.2	3
0	15851	22.2	3
0	15856	22.2	3
0	15857	22.2	3
0	15858	22.2	3
0	15859	22.2	3
0	15876	22.25	3
0	15877	22.25	3
0	15878	22.25	3
0	15879	22.25	3
0	15888	22.3	3
0	15889	22.3	3
0	15890	22.3	3
0	15891	22.3	3
0	15896	22.3	3
0	15897	22.3	3
0	15898	22.3	3
0	15899	22.3	3
0	15916	22.35	3
0	15917	22.35	3
0	15918	22.35	3
0	15919	22.35	3
0	15928	22.4	3
0	15929	22.4	3
0	15930	22.4	3
0	15931	22.4	3
0	15936	22.4	3
0	15937	22.4	3
0	15938	22.4	3
0	15939	22.4	3
0	15956	22.45	3
0	15957	22.45	3
0	15958	22.45	3
0	15959	22.45	3
0	15968	22.5	3
0	15969	22.5	3
0	15970	22.5	3
0	15971	22.5	3
0	15976	22.5	3
0	15977	22.5	3
0	15978	22.5	3
0	15979	22.5	3
0	15996	22.55	3
0	15997	22.55	3
0	15998	22.55	3
0	15999	22.55	3
0	16135	22.6	3
0	16136	22.6	3
0	16137	22.6	3
0	16138	22.6	3
0	16143	22.6	3
0	16144	22.6	3
0	16145	22.6	3
0	16146	22.6	3
0	16187	22.65	3
0	16188	22.65	3
0	16189	22.65	3
0	16190	22.65	3
0	16199	22.7	3
0	16200	22.7	3
0	16201	22.7	3
0	16202	22.7	3
0	16207	22.7	3
0	16208	22.7	3
0	16209	22.7	3
0	16210	22.7	3
0	16237	22.75	3
0	16238	22.75	3
0	16239	22.75	3
0	16240	22.75	3
0	16249	22.8	3
0	16250	22.8	3
0	16251	22.8	3
0	16252	22.8	3
0	16257	22.8	3
0	16258	22.8	3
0	16259	22.8	3
0	16260	22.8	3
0	16277	22.85	3
0	16278	22.85	3
0	16279	22.85	3
0	16280	22.85	3
0	16289	22.9	3
0	16290	22.9	3
0	16291	22.9	3
0	16292	22.9	3
0	16297	22.9	3
0	16298	22.9	3
0	16299	22.9	3
0	16300	22.9	3
0	16317	22.95	3
0	16318	22.95	3
0	16319	22.95	3
0	16320	22.95	3
0	16339	23	3
0	16340	23	3
0	16341	23	3
0	16342	23	3
0	16347	23	3
0	16348	23	3
0	16349	23	3
0	16350	23	3
0	16367	23.05	3
0	16368	23.05	3
0	16369	23.05	3
0	16370	23.05	3
0	16392	23.1	3
0	16393	23.1	3
0	16394	23.1	3
0	16395	23.1	3
0	16400	23.1	3
0	16401	23.1	3
0	16402	23.1	3
0	16403	23.1	3
0	16534	23.15	3
0	16535	23.15	3
0	16536	23.15	3
0	16537	23.15	3
0	16556	23.2	3
0	16557	23.2	3
0	16558	23.2	3
0	16559	23.2	3
0	16564	23.2	3
0	16565	23.2	3
0	16566	23.2	3
0	16567	23.2	3
0	16597	23.25	3
0	16598	23.25	3
0	16599	23.25	3
0	16600	23.25	3
0	16622	23.3	3
0	16623	23.3	3
0	16624	23.3	3
0	16625	23.3	3
0	16630	23.3	3
0	16631	23.3	3
0	16632	23.3	3
0	16633	23.3	3
0	16650	23.35	3
0	16651	23.35	3
0	16652	23.35	3
0	16653	23.35	3
0	16662	23.4	3
0	16663	23.4	3
0	16664	23.4	3
0	16665	23.4	3
0	16670	23.4	3
0	16671	23.4	3
0	16672	23.4	3
0	16673	23.4	3
0	16690	23.45	3
0	16691	23.45	3
0	16692	23.45	3
0	16693	23.45	3
0	16702	23.5	3
0	16703	23.5	3
0	16704	23.5	3
0	16705	23.5	3
0	16710	23.5	3
0	16711	23.5	3
0	16712	23.5	3
0	16713	23.5	3
0	16730	23.55	3
0	16731	23.55	3
0	16732	23.55	3
0	16733	23.55	3
0	16742	23.6	3
0	16743	23.6	3
0	16744	23.6	3
0	16745	23.6	3
0	16750	23.6	3
0	16751	23.6	3
0	16752	23.6	3
0	16753	23.6	3
0	16783	23.65	3
0	16784	23.65	3
0	16785	23.65	3
0	16786	23.65	3
0	16889	23.7	3
0	16890	23.7	3
0	16891	23.7	3
0	16892	23.7	3
0	16897	23.7	3
0	16898	23.7	3
0	16899	23.7	3
0	16900	23.7	3
0	16917	23.75	3
0	16918	23.75	3
0	16919	23.75	3
0	16920	23.75	3
0	16942	23.8	3
0	16943	23.8	3
0	16944	23.8	3
0	16945	23.8	3
0	16950	23.8	3
0	16951	23.8	3
0	16952	23.8	3
0	16953	23.8	3
0	16980	23.85	3
0	16981	23.85	3
0	16982	23.85	3
0	16983	23.85	3
0	16992	23.9	3
0	16993	23.9	3
0	16994	23.9	3
0	16995	23.9	3
0	17000	23.9	3
0	17001	23.9	3
0	17002	23.9	3
0	17003	23.9	3
0	17020	23.95	3
0	17021	23.95	3
0	17022	23.95	3
0	17023	23.95	3
0	17032	24	3
0	17033	24	3
0	17034	24	3
0	17035	24	3
0	17040	24	3
0	17041	24	3
0	17042	24	3
0	17043	24	3
0	17060	24.05	3
0	17061	24.05	3
0	17062	24.05	3
0	17063	24.05	3
0	17075	24.1	3
0	17076	24.1	3
0	17077	24.1	3
0	17078	24.1	3
0	17083	24.1	3
0	17084	24.1	3
0	17085	24.1	3
0	17086	24.1	3
0	17106	24.15	3
0	17107	24.15	3
0	17108	24.15	3
0	17109	24.15	3
0	17131	24.2	3
0	17132	24.2	3
0	17133	24.2	3
0	17134	24.2	3
0	17139	24.2	3
0	17140	24.2	3
0	17141	24.2	3
0	17142	24.2	3
0	17264	24.25	3
0	17265	24.25	3
0	17266	24.25	3
0	17267	24.25	3
0	17276	24.3	3
0	17277	24.3	3
0	17278	24.3	3
0	17279	24.3	3
0	17284	24.3	3
0	17285	24.3	3
0	17286	24.3	3
0	17287	24.3	3
0	17317	24.35	3
0	17318	24.35	3
0	17319	24.35	3
0	17320	24.35	3
0	17329	24.4	3
0	17330	24.4	3
0	17331	24.4	3
0	17332	24.4	3
0	17337	24.4	3
0	17338	24.4	3
0	17339	24.4	3
0	17340	24.4	3
0	17357	24.45	3
0	17358	24.45	3
0	17359	24.45	3
0	17360	24.45	3
0	17369	24.5	3
0	17370	24.5	3
0	17371	24.5	3
0	17372	24.5	3
0	17377	24.5	3
0	17378	24.5	3
0	17379	24.5	3
0	17380	24.5	3
0	17397	24.55	3
0	17398	24.55	3
0	17399	24.55	3
0	17400	24.55	3
0	17412	24.6	3
0	17413	24.6	3
0	17414	24.6	3
0	17415	24.6	3
0	17420	24.6	3
0	17421	24.6	3
0	17422	24.6	3
0	17423	24.6	3
0	17440	24.65	3
0	17441	24.65	3
0	17442	24.65	3
0	17443	24.65	3
0	17452	24.7	3
0	17453	24.7	3
0	17454	24.7	3
0	17455	24.7	3
0	17460	24.7	3
0	17461	24.7	3
0	17462	24.7	3
0	17463	24.7	3
0	17503	24.75	3
0	17504	24.75	3
0	17505	24.75	3
0	17506	24.75	3
0	17593	24.8	3
0	17594	24.8	3
0	17595	24.8	3
0	17596	24.8	3
0	17601	24.8	3
0	17602	24.8	3
0	17603	24.8	3
0	17604	24.8	3
0	17621	24.85	3
0	17622	24.85	3
0	17623	24.85	3
0	17624	24.85	3
0	17646	24.9	3
0	17647	24.9	3
0	17648	24.9	3
0	17649	24.9	3
0	17654	24.9	3
0	17655	24.9	3
0	17656	24.9	3
0	17657	24.9	3
0	17674	24.95	3
0	17675	24.95	3
0	17676	24.95	3
0	17677	24.95	3
0	17686	25	3
0	17687	25	3
0	17688	25	3
0	17689	25	3
0	17694	25	3
0	17695	25	3
0	17696	25	3
0	17697	25	3
0	17714	25.05	3
0	17715	25.05	3
0	17716	25.05	3
0	17717	25.05	3
0	17729	25.1	3
0	17730	25.1	3
0	17731	25.1	3
0	17732	25.1	3
0	17737	25.1	3
0	17738	25.1	3
0	17739	25.1	3
0	17740	25.1	3
0	17773	25.15	3
0	17774	25.15	3
0	17775	25.15	3
0	17776	25.15	3
0	17785	25.2	3
0	17786	25.2	3
0	17787	25.2	3
0	17788	25.2	3
0	17793	25.2	3
0	17794	25.2	3
0	17795	25.2	3
0	17796	25.2	3
0	17813	25.25	3
0	17814	25.25	3
0	17815	25.25	3
0	17816	25.25	3
0	17831	25.3	3
0	17832	25.3	3
0	17833	25.3	3
0	17834	25.3	3
0	17839	25.3	3
0	17840	25.3	3
0	17841	25.3	3
0	17842	25.3	3
0	17961	25.35	3
0	17962	25.35	3
0	17963	25.35	3
0	17964	25.35	3
0	17973	25.4	3
0	17974	25.4	3
0	17975	25.4	3
0	17976	25.4	3
0	17981	25.4	3
0	17982	25.4	3
0	17983	25.4	3
0	17984	25.4	3
0	18011	25.45	3
0	18012	25.45	3
0	18013	25.45	3
0	18014	25.45	3
0	18023	25.5	3
0	18024	25.5	3
0	18025	25.5	3
0	18026	25.5	3
0	18031	25.5	3
0	18032	25.5	3
0	18033	25.5	3
0	18034	25.5	3
0	18051	25.55	3
0	18052	25.55	3
0	18053	25.55	3
0	18054	25.55	3
0	18066	25.6	3
0	18067	25.6	3
0	18068	25.6	3
0	18069	25.6	3
0	18074	25.6	3
0	18075	25.6	3
0	18076	25.6	3
0	18077	25.6	3
0	18094	25.65	3
0	18095	25.65	3
0	18096	25.65	3
0	18097	25.65	3
0	18106	25.7	3
0	18107	25.7	3
0	18108	25.7	3
0	18109	25.7	3
0	18114	25.7	3
0	18115	25.7	3
0	18116	25.7	3
0	18117	25.7	3
0	18134	25.75	3
0	18135	25.75	3
0	18136	25.75	3
0	18137	25.75	3
0	18146	25.8	3
0	18147	25.8	3
0	18148	25.8	3
0	18149	25.8	3
0	18154	25.8	3
0	18155	25.8	3
0	18156	25.8	3
0	18157	25.8	3
0	18174	25.85	3
0	18175	25.85	3
0	18176	25.85	3
0	18177	25.85	3
0	18264	25.9	3
0	18265	25.9	3
0	18266	25.9	3
0	18267	25.9	3
0	18272	25.9	3
0	18273	25.9	3
0	18274	25.9	3
0	18275	25.9	3
0	18292	25.95	3
0	18293	25.95	3
0	18294	25.95	3
0	18295	25.95	3
0	18304	26	3
0	18305	26	3
0	18306	26	3
0	18307	26	3
0	18312	26	3
0	18313	26	3
0	18314	26	3
0	18315	26	3
0	18332	26.05	3
0	18333	26.05	3
0	18334	26.05	3
0	18335	26.05	3
0	18347	26.1	3
0	18348	26.1	3
0	18349	26.1	3
0	18350	26.1	3
0	18355	26.1	3
0	18356	26.1	3
0	18357	26.1	3
0	18358	26.1	3
0	18378	26.15	3
0	18379	26.15	3
0	18380	26.15	3
0	18381	26.15	3
0	18390	26.2	3
0	18391	26.2	3
0	18392	26.2	3
0	18393	26.2	3
0	18398	26.2	3
0	18399	26.2	3
0	18400	26.2	3
0	18401	26.2	3
0	18418	26.25	3
0	18419	26.25	3
0	18420	26.25	3
0	18421	26.25	3
0	18430	26.3	3
0	18431	26.3	3
0	18432	26.3	3
0	18433	26.3	3
0	18438	26.3	3
0	18439	26.3	3
0	18440	26.3	3
0	18441	26.3	3
0	18458	26.35	3
0	18459	26.35	3
0	18460	26.35	3
0	18461	26.35	3
0	18470	26.4	3
0	18471	26.4	3
0	18472	26.4	3
0	18473	26.4	3
0	18478	26.4	3
0	18479	26.4	3
0	18480	26.4	3
0	18481	26.4	3
0	18600	26.45	3
0	18601	26.45	3
0	18602	26.45	3
0	18603	26.45	3
0	18625	26.5	3
0	18626	26.5	3
0	18627	26.5	3
0	18628	26.5	3
0	18633	26.5	3
0	18634	26.5	3
0	18635	26.5	3
0	18636	26.5	3
0	18653	26.55	3
0	18654	26.55	3
0	18655	26.55	3
0	18656	26.55	3
0	18665	26.6	3
0	18666	26.6	3
0	18667	26.6	3
0	18668	26.6	3
0	18673	26.6	3
0	18674	26.6	3
0	18675	26.6	3
0	18676	26.6	3
0	18696	26.65	3
0	18697	26.65	3
0	18698	26.65	3
0	18699	26.65	3
0	18708	26.7	3
0	18709	26.7	3
0	18710	26.7	3
0	18711	26.7	3
0	18716	26.7	3
0	18717	26.7	3
0	18718	26.7	3
0	18719	26.7	3
0	18739	26.75	3
0	18740	26.75	3
0	18741	26.75	3
0	18742	26.75	3
0	18751	26.8	3
0	18752	26.8	3
0	18753	26.8	3
0	18754	26.8	3
0	18759	26.8	3
0	18760	26.8	3
0	18761	26.8	3
0	18762	26.8	3
0	18779	26.85	3
0	18780	26.85	3
0	18781	26.85	3
0	18782	26.85	3
0	18801	26.9	3
0	18802	26.9	3
0	18803	26.9	3
0	18804	26.9	3
0	18809	26.9	3
0	18810	26.9	3
0	18811	26.9	3
0	18812	26.9	3
0	18829	26.95	3
0	18830	26.95	3
0	18831	26.95	3
0	18832	26.95	3
0	18919	27	3
0	18920	27	3
0	18921	27	3
0	18922	27	3
0	18927	27	3
0	18928	27	3
0	18929	27	3
0	18930	27	3
0	18950	27.05	3
0	18951	27.05	3
0	18952	27.05	3
0	18953	27.05	3
0	18965	27.1	3
0	18966	27.1	3
0	18967	27.1	3
0	18968	27.1	3
0	18973	27.1	3
0	18974	27.1	3
0	18975	27.1	3
0	18976	27.1	3
0	18996	27.15	3
0	18997	27.15	3
0	18998	27.15	3
0	18999	27.15	3
0	19042	27.2	3
0	19043	27.2	3
0	19044	27.2	3
0	19045	27.2	3
0	19050	27.2	3
0	19051	27.2	3
0	19052	27.2	3
0	19053	27.2	3
0	19088	27.25	3
0	19089	27.25	3
0	19090	27.25	3
0	19091	27.25	3
0	19103	27.3	3
0	19104	27.3	3
0	19105	27.3	3
0	19106	27.3	3
0	19111	27.3	3
0	19112	27.3	3
0	19113	27.3	3
0	19114	27.3	3
0	19131	27.35	3
0	19132	27.35	3
0	19133	27.35	3
0	19134	27.35	3
0	19143	27.4	3
0	19144	27.4	3
0	19145	27.4	3
0	19146	27.4	3
0	19151	27.4	3
0	19152	27.4	3
0	19153	27.4	3
0	19154	27.4	3
0	19171	27.45	3
0	19172	27.45	3
0	19173	27.45	3
0	19174	27.45	3
0	19183	27.5	3
0	19184	27.5	3
0	19185	27.5	3
0	19186	27.5	3
0	19191	27.5	3
0	19192	27.5	3
0	19193	27.5	3
0	19194	27.5	3
0	19313	27.55	3
0	19314	27.55	3
0	19315	27.55	3
0	19316	27.55	3
0	19328	27.6	3
0	19329	27.6	3
0	19330	27.6	3
0	19331	27.6	3
0	19336	27.6	3
0	19337	27.6	3
0	19338	27.6	3
0	19339	27.6	3
0	19356	27.65	3
0	19357	27.65	3
0	19358	27.65	3
0	19359	27.65	3
0	19368	27.7	3
0	19369	27.7	3
0	19370	27.7	3
0	19371	27.7	3
0	19376	27.7	3
0	19377	27.7	3
0	19378	27.7	3
0	19379	27.7	3
0	19396	27.75	3
0	19397	27.75	3
0	19398	27.75	3
0	19399	27.75	3
0	19408	27.8	3
0	19409	27.8	3
0	19410	27.8	3
0	19411	27.8	3
0	19416	27.8	3
0	19417	27.8	3
0	19418	27.8	3
0	19419	27.8	3
0	19436	27.85	3
0	19437	27.85	3
0	19438	27.85	3
0	19439	27.85	3
0	19448	27.9	3
0	19449	27.9	3
0	19450	27.9	3
0	19451	27.9	3
0	19456	27.9	3
0	19457	27.9	3
0	19458	27.9	3
0	19459	27.9	3
0	19476	27.95	3
0	19477	27.95	3
0	19478	27.95	3
0	19479	27.95	3
0	19488	28	3
0	19489	28	3
0	19490	28	3
0	19491	28	3
0	19496	28	3
0	19497	28	3
0	19498	28	3
0	19499	28	3
0	19516	28.05	3
0	19517	28.05	3
0	19518	28.05	3
0	19519	28.05	3
0	19622	28.1	3
0	19623	28.1	3
0	19624	28.1	3
0	19625	28.1	3
0	19630	28.1	3
0	19631	28.1	3
0	19632	28.1	3
0	19633	28.1	3
0	19653	28.15	3
0	19654	28.15	3
0	19655	28.15	3
0	19656	28.15	3
0	19665	28.2	3
0	19666	28.2	3
0	19667	28.2	3
0	19668	28.2	3
0	19673	28.2	3
0	19674	28.2	3
0	19675	28.2	3
0	19676	28.2	3
0	19696	28.25	3
0	19697	28.25	3
0	19698	28.25	3
0	19699	28.25	3
0	19708	28.3	3
0	19709	28.3	3
0	19710	28.3	3
0	19711	28.3	3
0	19716	28.3	3
0	19717	28.3	3
0	19718	28.3	3
0	19719	28.3	3
0	19736	28.35	3
0	19737	28.35	3
0	19738	28.35	3
0	19739	28.35	3
0	19748	28.4	3
0	19749	28.4	3
0	19750	28.4	3
0	19751	28.4	3
0	19756	28.4	3
0	19757	28.4	3
0	19758	28.4	3
0	19759	28.4	3
0	19776	28.45	3
0	19777	28.45	3
0	19778	28.45	3
0	19779	28.45	3
0	19801	28.5	3
0	19802	28.5	3
0	19803	28.5	3
0	19804	28.5	3
0	19809	28.5	3
0	19810	28.5	3
0	19811	28.5	3
0	19812	28.5	3
0	19829	28.55	3
0	19830	28.55	3
0	19831	28.55	3
0	19832	28.55	3
0	19841	28.6	3
0	19842	28.6	3
0	19843	28.6	3
0	19844	28.6	3
0	19849	28.6	3
0	19850	28.6	3
0	19851	28.6	3
0	19852	28.6	3
0	19974	28.65	3
0	19975	28.65	3
0	19976	28.65	3
0	19977	28.65	3
0	19986	28.7	3
0	19987	28.7	3
0	19988	28.7	3
0	19989	28.7	3
0	19994	28.7	3
0	19995	28.7	3
0	19996	28.7	3
0	19997	28.7	3
0	20014	28.75	3
0	20015	28.75	3
0	20016	28.75	3
0	20017	28.75	3
0	20036	28.8	3
0	20037	28.8	3
0	20038	28.8	3
0	20039	28.8	3
0	20044	28.8	3
0	20045	28.8	3
0	20046	28.8	3
0	20047	28.8	3
0	20064	28.85	3
0	20065	28.85	3
0	20066	28.85	3
0	20067	28.85	3
0	20076	28.9	3
0	20077	28.9	3
0	20078	28.9	3
0	20079	28.9	3
0	20084	28.9	3
0	20085	28.9	3
0	20086	28.9	3
0	20087	28.9	3
0	20107	28.95	3
0	20108	28.95	3
0	20109	28.95	3
0	20110	28.95	3
0	20119	29	3
0	20120	29	3
0	20121	29	3
0	20122	29	3
0	20127	29	3
0	20128	29	3
0	20129	29	3
0	20130	29	3
0	20147	29.05	3
0	20148	29.05	3
0	20149	29.05	3
0	20150	29.05	3
0	20162	29.1	3
0	20163	29.1	3
0	20164	29.1	3
0	20165	29.1	3
0	20170	29.1	3
0	20171	29.1	3
0	20172	29.1	3
0	20173	29.1	3
0	20193	29.15	3
0	20194	29.15	3
0	20195	29.15	3
0	20196	29.15	3
0	20307	29.2	3
0	20308	29.2	3
0	20309	29.2	3
0	20310	29.2	3
0	20315	29.2	3
0	20316	29.2	3
0	20317	29.2	3
0	20318	29.2	3
0	20335	29.25	3
0	20336	29.25	3
0	20337	29.25	3
0	20338	29.25	3
0	20347	29.3	3
0	20348	29.3	3
0	20349	29.3	3
0	20350	29.3	3
0	20355	29.3	3
0	20356	29.3	3
0	20357	29.3	3
0	20358	29.3	3
0	20375	29.35	3
0	20376	29.35	3
0	20377	29.35	3
0	20378	29.35	3
0	20387	29.4	3
0	20388	29.4	3
0	20389	29.4	3
0	20390	29.4	3
0	20395	29.4	3
0	20396	29.4	3
0	20397	29.4	3
0	20398	29.4	3
0	20415	29.45	3
0	20416	29.45	3
0	20417	29.45	3
0	20418	29.45	3
0	20427	29.5	3
0	20428	29.5	3
0	20429	29.5	3
0	20430	29.5	3
0	20435	29.5	3
0	20436	29.5	3
0	20437	29.5	3
0	20438	29.5	3
0	20455	29.55	3
0	20456	29.55	3
0	20457	29.55	3
0	20458	29.55	3
0	20467	29.6	3
0	20468	29.6	3
0	20469	29.6	3
0	20470	29.6	3
0	20475	29.6	3
0	20476	29.6	3
0	20477	29.6	3
0	20478	29.6	3
0	20495	29.65	3
0	20496	29.65	3
0	20497	29.65	3
0	20498	29.65	3
0	20520	29.7	3
0	20521	29.7	3
0	20522	29.7	3
0	20523	29.7	3
0	20528	29.7	3
0	20529	29.7	3
0	20530	29.7	3
0	20531	29.7	3
0	20626	29.75	3
0	20627	29.75	3
0	20628	29.75	3
0	20629	29.75	3
0	20638	29.8	3
0	20639	29.8	3
0	20640	29.8	3
0	20641	29.8	3
0	20646	29.8	3
0	20647	29.8	3
0	20648	29.8	3
0	20649	29.8	3
0	20679	29.85	3
0	20680	29.85	3
0	20681	29.85	3
0	20682	29.85	3
0	20691	29.9	3
0	20692	29.9	3
0	20693	29.9	3
0	20694	29.9	3
0	20699	29.9	3
0	20700	29.9	3
0	20701	29.9	3
0	20702	29.9	3
0	20719	29.95	3
0	20720	29.95	3
0	20721	29.95	3
0	20722	29.95	3
0	20731	30	3
0	20732	30	3
0	20733	30	3
0	20734	30	3
0	20739	30	3
0	20740	30	3
0	20741	30	3
0	20742	30	3
0	20759	30.05	3
0	20760	30.05	3
0	20761	30.05	3
0	20762	30.05	3
0	20787	30.1	3
0	20788	30.1	3
0	20789	30.1	3
0	20790	30.1	3
0	20795	30.1	3
0	20796	30.1	3
0	20797	30.1	3
0	20798	30.1	3
0	20818	30.15	3
0	20819	30.15	3
0	20820	30.15	3
0	20821	30.15	3
0	20830	30.2	2
0	20831	30.2	3
0	20832	30.2	2
0	20833	30.2	3
0	20838	30.2	2
0	20839	30.2	3
0	20840	30.2	2
0	20841	30.2	3
0	20874	30.25	2
0	20875	30.25	3
0	20876	30.25	2
0	20877	30.25	3
0	20988	30.3	2
0	20989	30.3	3
0	20990	30.3	2
0	20991	30.3	3
0	20996	30.3	2
0	20997	30.3	3
0	20998	30.3	2
0	20999	30.3	3
0	21016	30.35	2
0	21017	30.35	3
0	21018	30.35	2
0	21019	30.35	3
0	21028	30.4	2
0	21029	30.4	3
0	21030	30.4	2
0	21031	30.4	3
0	21036	30.4	2
0	21037	30.4	3
0	21038	30.4	2
0	21039	30.4	3
0	21056	30.45	2
0	21057	30.45	3
0	21058	30.45	2
0	21059	30.45	3
0	21068	30.5	2
0	21069	30.5	3
0	21070	30.5	2
0	21071	30.5	3
0	21076	30.5	2
0	21077	30.5	3
0	21078	30.5	2
0	21079	30.5	3
0	21096	30.55	2
0	21097	30.55	3
0	21098	30.55	2
0	21099	30.55	3
0	21108	30.6	2
0	21109	30.6	3
0	21110	30.6	2
0	21111	30.6	3
0	21116	30.6	2
0	21117	30.6	3
0	21118	30.6	2
0	21119	30.6	3
0	21146	30.65	2
0	21147	30.65	3
0	21148	30.65	2
0	21149	30.65	3
0	21158	30.7	2
0	21159	30.7	3
0	21160	30.7	2
0	21161	30.7	3
0	21166	30.7	2
0	21167	30.7	3
0	21168	30.7	2
0	21169	30.7	3
0	21186	30.75	2
0	21187	30.75	3
0	21188	30.75	2
0	21189	30.75	3
0	21201	30.8	2
0	21202	30.8	3
0	21203	30.8	2
0	21204	30.8	3
0	21209	30.8	2
0	21210	30.8	3
0	21211	30.8	2
0	21212	30.8	3
0	21307	30.85	1
0	21308	30.85	3
0	21309	30.85	2
0	21310	30.85	2
0	21319	30.9	1
0	21320	30.9	3
0	21321	30.9	2
0	21322	30.9	2
0	21327	30.9	1
0	21328	30.9	3
0	21329	30.9	2
0	21330	30.9	2
0	21347	30.95	1
0	21348	30.95	3
0	21349	30.95	2
0	21350	30.95	2
0	21359	31	1
0	21360	31	3
0	21361	31	2
0	21362	31	2
0	21367	31	1
0	21368	31	3
0	21369	31	2
0	21370	31	2
0	21387	31.05	1
0	21388	31.05	3
0	21389	31.05	2
0	21390	31.05	2
0	21402	31.1	1
0	21403	31.1	3
0	21404	31.1	2
0	21405	31.1	2
0	21410	31.1	1
0	21411	31.1	3
0	21412	31.1	2
0	21413	31.1	2
0	21433	31.15	1
0	21434	31.15	3
0	21435	31.15	2
0	21436	31.15	2
0	21445	31.2	1
0	21446	31.2	3
0	21447	31.2	2
0	21448	31.2	2
0	21453	31.2	1
0	21454	31.2	3
0	21455	31.2	2
0	21456	31.2	2
0	21473	31.25	1
0	21474	31.25	3
0	21475	31.25	2
0	21476	31.25	2
0	21485	31.3	1
0	21486	31.3	3
0	21487	31.3	2
0	21488	31.3	2
0	21493	31.3	1
0	21494	31.3	3
0	21495	31.3	2
0	21496	31.3	2
0	21513	31.35	1
0	21514	31.35	3
0	21515	31.35	2
0	21516	31.35	2
0	21627	31.4	1
0	21628	31.4	3
0	21629	31.4	2
0	21630	31.4	2
0	21635	31.4	1
0	21636	31.4	3
0	21637	31.4	2
0	21638	31.4	2
0	21668	31.45	1
0	21669	31.45	3
0	21670	31.45	2
0	21671	31.45	2
0	21680	31.5	1
0	21681	31.5	3
0	21682	31.5	2
0	21683	31.5	2
0	21688	31.5	1
0	21689	31.5	3
0	21690	31.5	2
0	21691	31.5	2
0	21708	31.55	1
0	21709	31.55	3
0	21710	31.55	2
0	21711	31.55	2
0	21733	31.6	1
0	21734	31.6	3
0	21735	31.6	2
0	21736	31.6	2
0	21741	31.6	1
0	21742	31.6	3
0	21743	31.6	2
0	21744	31.6	2
0	21761	31.65	1
0	21762	31.65	3
0	21763	31.65	2
0	21764	31.65	2
0	21773	31.7	1
0	21774	31.7	3
0	21775	31.7	2
0	21776	31.7	2
0	21781	31.7	1
0	21782	31.7	3
0	21783	31.7	2
0	21784	31.7	2
0	21801	31.75	1
0	21802	31.75	3
0	21803	31.75	2
0	21804	31.75	2
0	21813	31.8	1
0	21814	31.8	3
0	21815	31.8	2
0	21816	31.8	2
0	21821	31.8	1
0	21822	31.8	3
0	21823	31.8	2
0	21824	31.8	2
0	21841	31.85	1
0	21842	31.85	3
0	21843	31.85	2
0	21844	31.85	2
0	21853	31.9	1
0	21854	31.9	3
0	21855	31.9	2
0	21856	31.9	2
0	21861	31.9	1
0	21862	31.9	3
0	21863	31.9	2
0	21864	31.9	2
0	21959	31.95	1
0	21960	31.95	3
0	21961	31.95	2
0	21962	31.95	2
0	21984	32	1
0	21985	32	3
0	21986	32	2
0	21987	32	2
0	21992	32	1
0	21993	32	3
0	21994	32	2
0	21995	32	2
0	22012	32.05	1
0	22013	32.05	3
0	22014	32.05	2
0	22015	32.05	2
0	22027	32.1	1
0	22028	32.1	3
0	22029	32.1	2
0	22030	32.1	2
0	22035	32.1	1
0	22036	32.1	3
0	22037	32.1	2
0	22038	32.1	2
0	22071	32.15	1
0	22072	32.15	3
0	22073	32.15	2
0	22074	32.15	2
0	22083	32.2	1
0	22084	32.2	3
0	22085	32.2	2
0	22086	32.2	2
0	22091	32.2	1
0	22092	32.2	3
0	22093	32.2	2
0	22094	32.2	2
0	22111	32.25	1
0	22112	32.25	3
0	22113	32.25	2
0	22114	32.25	2
0	22123	32.3	1
0	22124	32.3	3
0	22125	32.3	2
0	22126	32.3	2
0	22131	32.3	1
0	22132	32.3	3
0	22133	32.3	2
0	22134	32.3	2
0	22151	32.35	1
0	22152	32.35	3
0	22153	32.35	2
0	22154	32.35	2
0	22163	32.4	1
0	22164	32.4	3
0	22165	32.4	2
0	22166	32.4	2
0	22171	32.4	1
0	22172	32.4	3
0	22173	32.4	2
0	22174	32.4	2
0	22191	32.45	1
0	22192	32.45	3
0	22193	32.45	2
0	22194	32.45	2
0	22305	32.5	1
0	22306	32.5	3
0	22307	32.5	2
0	22308	32.5	2
0	22313	32.5	1
0	22314	32.5	3
0	22315	32.5	2
0	22316	32.5	2
0	22336	32.55	1
0	22337	32.55	3
0	22338	32.55	2
0	22339	32.55	2
0	22348	32.6	1
0	22349	32.6	3
0	22350	32.6	2
0	22351	32.6	2
0	22356	32.6	1
0	22357	32.6	3
0	22358	32.6	2
0	22359	32.6	2
0	22376	32.65	1
0	22377	32.65	3
0	22378	32.65	2
0	22379	32.65	2
0	22388	32.7	1
0	22389	32.7	3
0	22390	32.7	2
0	22391	32.7	2
0	22396	32.7	1
0	22397	32.7	3
0	22398	32.7	2
0	22399	32.7	2
0	22416	32.75	1
0	22417	32.75	3
0	22418	32.75	2
0	22419	32.75	2
0	22428	32.8	1
0	22429	32.8	3
0	22430	32.8	2
0	22431	32.8	2
0	22436	32.8	1
0	22437	32.8	3
0	22438	32.8	2
0	22439	32.8	2
0	22456	32.85	1
0	22457	32.85	3
0	22458	32.85	2
0	22459	32.85	2
0	22468	32.9	1
0	22469	32.9	3
0	22470	32.9	2
0	22471	32.9	2
0	22476	32.9	1
0	22477	32.9	3
0	22478	32.9	2
0	22479	32.9	2
0	22496	32.95	1
0	22497	32.95	3
0	22498	32.95	2
0	22499	32.95	2
0	22508	33	1
0	22509	33	3
0	22510	33	2
0	22511	33	2
0	22516	33	1
0	22517	33	3
0	22518	33	2
0	22519	33	2
0	22614	33.05	1
0	22615	33.05	3
0	22616	33.05	2
0	22617	33.05	2
0	22629	33.1	1
0	22630	33.1	3
0	22631	33.1	2
0	22632	33.1	2
0	22637	33.1	1
0	22638	33.1	3
0	22639	33.1	2
0	22640	33.1	2
0	22660	33.15	1
0	22661	33.15	3
0	22662	33.15	2
0	22663	33.15	2
0	22672	33.2	1
0	22673	33.2	3
0	22674	33.2	2
0	22675	33.2	2
0	22680	33.2	1
0	22681	33.2	3
0	22682	33.2	2
0	22683	33.2	2
0	22700	33.25	1
0	22701	33.25	3
0	22702	33.25	2
0	22703	33.25	2
0	22712	33.3	1
0	22713	33.3	3
0	22714	33.3	2
0	22715	33.3	2
0	22720	33.3	1
0	22721	33.3	3
0	22722	33.3	2
0	22723	33.3	2
0	22740	33.35	1
0	22741	33.35	3
0	22742	33.35	2
0	22743	33.35	2
0	22752	33.4	1
0	22753	33.4	3
0	22754	33.4	2
0	22755	33.4	2
0	22760	33.4	1
0	22761	33.4	3
0	22762	33.4	2
0	22763	33.4	2
0	22780	33.45	1
0	22781	33.45	3
0	22782	33.45	2
0	22783	33.45	2
0	22792	33.5	1
0	22793	33.5	3
0	22794	33.5	2
0	22795	33.5	2
0	22800	33.5	1
0	22801	33.5	3
0	22802	33.5	2
0	22803	33.5	2
0	22820	33.55	1
0	22821	33.55	3
0	22822	33.55	2
0	22823	33.55	2
0	22934	33.6	1
0	22935	33.6	3
0	22936	33.6	2
0	22937	33.6	2
0	22942	33.6	1
0	22943	33.6	3
0	22944	33.6	2
0	22945	33.6	2
0	22962	33.65	1
0	22963	33.65	3
0	22964	33.65	2
0	22965	33.65	2
0	22974	33.7	1
0	22975	33.7	3
0	22976	33.7	2
0	22977	33.7	2
0	22982	33.7	1
0	22983	33.7	3
0	22984	33.7	2
0	22985	33.7	2
0	23012	33.75	1
0	23013	33.75	3
0	23014	33.75	2
0	23015	33.75	2
0	23024	33.8	1
0	23025	33.8	3
0	23026	33.8	2
0	23027	33.8	2
0	23032	33.8	1
0	23033	33.8	3
0	23034	33.8	2
0	23035	33.8	2
0	23052	33.85	1
0	23053	33.85	3
0	23054	33.85	2
0	23055	33.85	2
0	23067	33.9	1
0	23068	33.9	3
0	23069	33.9	2
0	23070	33.9	2
0	23075	33.9	1
0	23076	33.9	3
0	23077	33.9	2
0	23078	33.9	2
0	23095	33.95	1
0	23096	33.95	3
0	23097	33.95	2
0	23098	33.95	2
0	23107	34	1
0	23108	34	3
0	23109	34	2
0	23110	34	2
0	23115	34	1
0	23116	34	3
0	23117	34	2
0	23118	34	2
0	23135	34.05	1
0	23136	34.05	3
0	23137	34.05	2
0	23138	34.05	2
0	23150	34.1	1
0	23151	34.1	3
0	23152	34.1	2
0	23153	34.1	2
0	23158	34.1	1
0	23159	34.1	3
0	23160	34.1	2
0	23161	34.1	2
0	23283	34.15	1
0	23284	34.15	3
0	23285	34.15	2
0	23286	34.15	2
0	23295	34.2	1
0	23296	34.2	3
0	23297	34.2	2
0	23298	34.2	2
0	23303	34.2	1
0	23304	34.2	3
0	23305	34.2	2
0	23306	34.2	2
0	23323	34.25	1
0	23324	34.25	3
0	23325	34.25	2
0	23326	34.25	2
0	23335	34.3	1
0	23336	34.3	3
0	23337	34.3	2
0	23338	34.3	2
0	23343	34.3	1
0	23344	34.3	3
0	23345	34.3	2
0	23346	34.3	2
0	23363	34.35	1
0	23364	34.35	3
0	23365	34.35	2
0	23366	34.35	2
0	23375	34.4	1
0	23376	34.4	3
0	23377	34.4	2
0	23378	34.4	2
0	23383	34.4	1
0	23384	34.4	3
0	23385	34.4	2
0	23386	34.4	2
0	23403	34.45	1
0	23404	34.45	3
0	23405	34.45	2
0	23406	34.45	2
0	23415	34.5	1
0	23416	34.5	3
0	23417	34.5	2
0	23418	34.5	2
0	23423	34.5	1
0	23424	34.5	3
0	23425	34.5	2
0	23426	34.5	2
0	23443	34.55	1
0	23444	34.55	3
0	23445	34.55	2
0	23446	34.55	2
0	23455	34.6	1
0	23456	34.6	3
0	23457	34.6	2
0	23458	34.6	2
0	23463	34.6	1
0	23464	34.6	3
0	23465	34.6	2
0	23466	34.6	2
0	23483	34.65	1
0	23484	34.65	3
0	23485	34.65	2
0	23486	34.65	2
0	23573	34.7	1
0	23574	34.7	3
0	23575	34.7	2
0	23576	34.7	2
0	23581	34.7	1
0	23582	34.7	3
0	23583	34.7	2
0	23584	34.7	2
0	23601	34.75	1
0	23602	34.75	3
0	23603	34.75	2
0	23604	34.75	2
0	23613	34.8	0
0	23614	34.8	2
0	23615	34.8	2
0	23616	34.8	2
0	23621	34.8	0
0	23622	34.8	2
0	23623	34.8	2
0	23624	34.8	2
0	23637	34.85	0
0	23638	34.85	2
0	23639	34.85	2
0	23640	34.85	2
0	23647	34.9	0
0	23648	34.9	2
0	23649	34.9	2
0	23650	34.9	2
0	23655	34.9	0
0	23656	34.9	2
0	23657	34.9	2
0	23658	34.9	2
0	23671	34.95	0
0	23672	34.95	2
0	23673	34.95	2
0	23674	34.95	2
0	23681	35	0
0	23682	35	2
0	23683	35	2
0	23684	35	2
0	23689	35	0
0	23690	35	2
0	23691	35	2
0	23692	35	2
0	23705	35.05	0
0	23706	35.05	2
0	23707	35.05	2
0	23708	35.05	2
0	23718	35.1	0
0	23719	35.1	2
0	23720	35.1	2
0	23721	35.1	2
0	23726	35.1	0
0	23727	35.1	2
0	23728	35.1	2
0	23729	35.1	2
0	23745	35.15	0
0	23746	35.15	2
0	23747	35.15	2
0	23748	35.15	2
0	23755	35.2	0
0	23756	35.2	2
0	23757	35.2	2
0	23758	35.2	2
0	23763	35.2	0
0	23764	35.2	2
0	23765	35.2	2
0	23766	35.2	2
0	23881	35.25	0
0	23882	35.25	2
0	23883	35.25	2
0	23884	35.25	2
0	23891	35.3	0
0	23892	35.3	2
0	23893	35.3	2
0	23894	35.3	2
0	23899	35.3	0
0	23900	35.3	2
0	23901	35.3	2
0	23902	35.3	2
0	23915	35.35	0
0	23916	35.35	2
0	23917	35.35	2
0	23918	35.35	2
0	23925	35.4	0
0	23926	35.4	2
0	23927	35.4	2
0	23928	35.4	2
0	23933	35.4	0
0	23934	35.4	2
0	23935	35.4	2
0	23936	35.4	2
0	23949	35.45	0
0	23950	35.45	2
0	23951	35.45	2
0	23952	35.45	2
0	23959	35.5	0
0	23960	35.5	2
0	23961	35.5	2
0	23962	35.5	2
0	23967	35.5	0
0	23968	35.5	2
0	23969	35.5	2
0	23970	35.5	2
0	23983	35.55	0
0	23984	35.55	2
0	23985	35.55	2
0	23986	35.55	2
0	23993	35.6	0
0	23994	35.6	2
0	23995	35.6	2
0	23996	35.6	2
0	24001	35.6	0
0	24002	35.6	2
0	24003	35.6	2
0	24004	35.6	2
0	24017	35.65	0
0	24018	35.65	2
0	24019	35.65	2
0	24020	35.65	2
0	24027	35.7	0
0	24028	35.7	2
0	24029	35.7	2
0	24030	35.7	2
0	24035	35.7	0
0	24036	35.7	2
0	24037	35.7	2
0	24038	35.7	2
0	24051	35.75	0
0	24052	35.75	2
0	24053	35.75	2
0	24054	35.75	2
0	24139	35.8	0
0	24140	35.8	2
0	24141	35.8	2
0	24142	35.8	2
0	24147	35.8	0
0	24148	35.8	2
0	24149	35.8	2
0	24150	35.8	2
0	24163	35.85	0
0	24164	35.85	2
0	24165	35.85	2
0	24166	35.85	2
0	24173	35.9	0
0	24174	35.9	2
0	24175	35.9	2
0	24176	35.9	2
0	24181	35.9	0
0	24182	35.9	2
0	24183	35.9	2
0	24184	35.9	2
0	24197	35.95	0
0	24198	35.95	2
0	24199	35.95	2
0	24200	35.95	2
0	24207	36	0
0	24208	36	2
0	24209	36	2
0	24210	36	2
0	24215	36	0
0	24216	36	2
0	24217	36	2
0	24218	36	2
0	24231	36.05	0
0	24232	36.05	2
0	24233	36.05	2
0	24234	36.05	2
0	24244	36.1	0
0	24245	36.1	2
0	24246	36.1	2
0	24247	36.1	2
0	24251	36.1	0
0	24252	36.1	2
0	24253	36.1	2
0	24254	36.1	2
0	24270	36.15	0
0	24271	36.15	2
0	24272	36.15	2
0	24273	36.15	2
0	24280	36.2	0
0	24281	36.2	2
0	24282	36.2	2
0	24283	36.2	2
0	24287	36.2	0
0	24288	36.2	2
0	24289	36.2	2
0	24290	36.2	2
0	24303	36.25	0
0	24304	36.25	2
0	24305	36.25	2
0	24306	36.25	2
0	24313	36.3	0
0	24314	36.3	2
0	24315	36.3	2
0	24316	36.3	2
0	24320	36.3	0
0	24321	36.3	2
0	24322	36.3	2
0	24323	36.3	2
0	24438	36.35	0
0	24439	36.35	2
0	24440	36.35	2
0	24441	36.35	2
0	24448	36.4	0
0	24449	36.4	2
0	24450	36.4	2
0	24451	36.4	2
0	24455	36.4	0
0	24456	36.4	2
0	24457	36.4	2
0	24458	36.4	2
0	24471	36.45	0
0	24472	36.45	2
0	24473	36.45	2
0	24474	36.45	2
0	24481	36.5	0
0	24482	36.5	2
0	24483	36.5	2
0	24484	36.5	2
0	24488	36.5	0
0	24489	36.5	2
0	24490	36.5	2
0	24491	36.5	2
0	24504	36.55	0
0	24505	36.55	2
0	24506	36.55	2
0	24507	36.55	2
0	24514	36.6	0
0	24515	36.6	2
0	24516	36.6	2
0	24517	36.6	2
0	24521	36.6	0
0	24522	36.6	2
0	24523	36.6	2
0	24524	36.6	2
0	24537	36.65	0
0	24538	36.65	2
0	24539	36.65	2
0	24540	36.65	2
0	24547	36.7	0
0	24548	36.7	2
0	24549	36.7	2
0	24550	36.7	2
0	24554	36.7	0
0	24555	36.7	2
0	24556	36.7	2
0	24557	36.7	2
0	24570	36.75	0
0	24571	36.75	2
0	24572	36.75	2
0	24573	36.75	2
0	24580	36.8	0
0	24581	36.8	2
0	24582	36.8	2
0	24583	36.8	2
0	24587	36.8	0
0	24588	36.8	2
0	24589	36.8	2
0	24590	36.8	2
0	24603	36.85	0
0	24604	36.85	2
0	24605	36.85	2
0	24606	36.85	2
0	24691	36.9	0
0	24692	36.9	2
0	24693	36.9	2
0	24694	36.9	2
0	24698	36.9	0
0	24699	36.9	2
0	24700	36.9	2
0	24701	36.9	2
0	24714	36.95	0
0	24715	36.95	2
0	24716	36.95	2
0	24717	36.95	2
0	24724	37	0
0	24725	37	2
0	24726	37	2
0	24727	37	2
0	24731	37	0
0	24732	37	2
0	24733	37	2
0	24734	37	2
0	24747	37.05	0
0	24748	37.05	2
0	24749	37.05	2
0	24750	37.05	2
0	24760	37.1	0
0	24761	37.1	2
0	24762	37.1	2
0	24763	37.1	2
0	24767	37.1	0
0	24768	37.1	2
0	24769	37.1	2
0	24770	37.1	2
0	24786	37.15	0
0	24787	37.15	2
0	24788	37.15	2
0	24789	37.15	2
0	24796	37.2	0
0	24797	37.2	2
0	24798	37.2	2
0	24799	37.2	2
0	24803	37.2	0
0	24804	37.2	2
0	24805	37.2	2
0	24806	37.2	2
0	24819	37.25	0
0	24820	37.25	2
0	24821	37.25	2
0	24822	37.25	2
0	24829	37.3	0
0	24830	37.3	2
0	24831	37.3	2
0	24832	37.3	2
0	24836	37.3	0
0	24837	37.3	2
0	24838	37.3	2
0	24839	37.3	2
0	24852	37.35	0
0	24853	37.35	2
0	24854	37.35	2
0	24855	37.35	2
0	24862	37.4	0
0	24863	37.4	2
0	24864	37.4	2
0	24865	37.4	2
0	24869	37.4	0
0	24870	37.4	2
0	24871	37.4	2
0	24872	37.4	2
0	24987	37.45	0
0	24988	37.45	2
0	24989	37.45	2
0	24990	37.45	2
0	24997	37.5	0
0	24998	37.5	2
0	24999	37.5	2
0	25000	37.5	2
0	25004	37.5	0
0	25005	37.5	2
0	25006	37.5	2
0	25007	37.5	2
0	25020	37.55	1
0	25021	37.55	2
0	25022	37.55	2
0	25023	37.55	3
0	25032	37.6	1
0	25033	37.6	2
0	25034	37.6	2
0	25035	37.6	3
0	25039	37.6	1
0	25040	37.6	2
0	25041	37.6	2
0	25042	37.6	3
0	25059	37.65	1
0	25060	37.65	2
0	25061	37.65	2
0	25062	37.65	3
0	25071	37.7	1
0	25072	37.7	2
0	25073	37.7	2
0	25074	37.7	3
0	25078	37.7	1
0	25079	37.7	2
0	25080	37.7	2
0	25081	37.7	3
0	25098	37.75	1
0	25099	37.75	2
0	25100	37.75	2
0	25101	37.75	3
0	25110	37.8	1
0	25111	37.8	2
0	25112	37.8	2
0	25113	37.8	3
0	25117	37.8	1
0	25118	37.8	2
0	25119	37.8	2
0	25120	37.8	3
0	25137	37.85	1
0	25138	37.85	2
0	25139	37.85	2
0	25140	37.85	3
0	25149	37.9	1
0	25150	37.9	2
0	25151	37.9	2
0	25152	37.9	3
0	25156	37.9	1
0	25157	37.9	2
0	25158	37.9	2
0	25159	37.9	3
0	25176	37.95	1
0	25177	37.95	2
0	25178	37.95	2
0	25179	37.95	3
0	25266	38	1
0	25267	38	2
0	25268	38	2
0	25269	38	3
0	25273	38	1
0	25274	38	2
0	25275	38	2
0	25276	38	3
0	25293	38.05	1
0	25294	38.05	2
0	25295	38.05	2
0	25296	38.05	3
0	25308	38.1	1
0	25309	38.1	2
0	25310	38.1	2
0	25311	38.1	3
0	25315	38.1	1
0	25316	38.1	2
0	25317	38.1	2
0	25318	38.1	3
0	25338	38.15	1
0	25339	38.15	2
0	25340	38.15	2
0	25341	38.15	3
0	25350	38.2	1
0	25351	38.2	2
0	25352	38.2	2
0	25353	38.2	3
0	25357	38.2	1
0	25358	38.2	2
0	25359	38.2	2
0	25360	38.2	3
0	25377	38.25	1
0	25378	38.25	2
0	25379	38.25	2
0	25380	38.25	3
0	25389	38.3	1
0	25390	38.3	2
0	25391	38.3	2
0	25392	38.3	3
0	25396	38.3	1
0	25397	38.3	2
0	25398	38.3	2
0	25399	38.3	3
0	25416	38.35	1
0	25417	38.35	2
0	25418	38.35	2
0	25419	38.35	3
0	25428	38.4	1
0	25429	38.4	2
0	25430	38.4	2
0	25431	38.4	3
0	25435	38.4	1
0	25436	38.4	2
0	25437	38.4	2
0	25438	38.4	3
0	25455	38.45	1
0	25456	38.45	2
0	25457	38.45	2
0	25458	38.45	3
0	25467	38.5	1
0	25468	38.5	2
0	25469	38.5	2
0	25470	38.5	3
0	25474	38.5	1
0	25475	38.5	2
0	25476	38.5	2
0	25477	38.5	3
0	25596	38.55	1
0	25597	38.55	2
0	25598	38.55	2
0	25599	38.55	3
0	25608	38.6	1
0	25609	38.6	2
0	25610	38.6	2
0	25611	38.6	3
0	25615	38.6	1
0	25616	38.6	2
0	25617	38.6	2
0	25618	38.6	3
0	25648	38.65	1
0	25649	38.65	2
0	25650	38.65	2
0	25651	38.65	3
0	25660	38.7	1
0	25661	38.7	2
0	25662	38.7	2
0	25663	38.7	3
0	25667	38.7	1
0	25668	38.7	2
0	25669	38.7	2
0	25670	38.7	3
0	25687	38.75	1
0	25688	38.75	2
0	25689	38.75	2
0	25690	38.75	3
0	25699	38.8	1
0	25700	38.8	2
0	25701	38.8	2
0	25702	38.8	3
0	25706	38.8	1
0	25707	38.8	2
0	25708	38.8	2
0	25709	38.8	3
0	25726	38.85	1
0	25727	38.85	2
0	25728	38.85	2
0	25729	38.85	3
0	25738	38.9	1
0	25739	38.9	2
0	25740	38.9	2
0	25741	38.9	3
0	25745	38.9	1
0	25746	38.9	2
0	25747	38.9	2
0	25748	38.9	3
0	25765	38.95	1
0	25766	38.95	2
0	25767	38.95	2
0	25768	38.95	3
0	25777	39	1
0	25778	39	2
0	25779	39	2
0	25780	39	3
0	25784	39	1
0	25785	39	2
0	25786	39	2
0	25787	39	3
0	25804	39.05	1
0	25805	39.05	2
0	25806	39.05	2
0	25807	39.05	3
0	25897	39.1	1
0	25898	39.1	2
0	25899	39.1	2
0	25900	39.1	3
0	25904	39.1	1
0	25905	39.1	2
0	25906	39.1	2
0	25907	39.1	3
0	25927	39.15	1
0	25928	39.15	2
0	25929	39.15	2
0	25930	39.15	3
0	25942	39.2	1
0	25943	39.2	2
0	25944	39.2	2
0	25945	39.2	3
0	25949	39.2	1
0	25950	39.2	2
0	25951	39.2	2
0	25952	39.2	3
0	25969	39.25	1
0	25970	39.25	2
0	25971	39.25	2
0	25972	39.25	3
0	25981	39.3	1
0	25982	39.3	2
0	25983	39.3	2
0	25984	39.3	3
0	25988	39.3	1
0	25989	39.3	2
0	25990	39.3	2
0	25991	39.3	3
0	26008	39.35	1
0	26009	39.35	2
0	26010	39.35	2
0	26011	39.35	3
0	26020	39.4	1
0	26021	39.4	2
0	26022	39.4	2
0	26023	39.4	3
0	26027	39.4	1
0	26028	39.4	2
0	26029	39.4	2
0	26030	39.4	3
0	26047	39.45	1
0	26048	39.45	2
0	26049	39.45	2
0	26050	39.45	3
0	26059	39.5	1
0	26060	39.5	2
0	26061	39.5	2
0	26062	39.5	3
0	26066	39.5	1
0	26067	39.5	2
0	26068	39.5	2
0	26069	39.5	3
0	26086	39.55	1
0	26087	39.55	2
0	26088	39.55	2
0	26089	39.55	3
0	26098	39.6	1
0	26099	39.6	2
0	26100	39.6	2
0	26101	39.6	3
0	26105	39.6	1
0	26106	39.6	2
0	26107	39.6	2
0	26108	39.6	3
0	26227	39.65	1
0	26228	39.65	2
0	26229	39.65	2
0	26230	39.65	3
0	26239	39.7	1
0	26240	39.7	2
0	26241	39.7	2
0	26242	39.7	3
0	26246	39.7	1
0	26247	39.7	2
0	26248	39.7	2
0	26249	39.7	3
0	26266	39.75	1
0	26267	39.75	2
0	26268	39.75	2
0	26269	39.75	3
0	26278	39.8	1
0	26279	39.8	2
0	26280	39.8	2
0	26281	39.8	3
0	26285	39.8	1
0	26286	39.8	2
0	26287	39.8	2
0	26288	39.8	3
0	26305	39.85	1
0	26306	39.85	2
0	26307	39.85	2
0	26308	39.85	3
0	26317	39.9	1
0	26318	39.9	2
0	26319	39.9	2
0	26320	39.9	3
0	26324	39.9	1
0	26325	39.9	2
0	26326	39.9	2
0	26327	39.9	3
0	26344	39.95	1
0	26345	39.95	2
0	26346	39.95	2
0	26347	39.95	3
0	26356	40	1
0	26357	40	2
0	26358	40	2
0	26359	40	3
0	26363	40	1
0	26364	40	2
0	26365	40	2
0	26366	40	3
0	26383	40.05	1
0	26384	40.05	2
0	26385	40.05	2
0	26386	40.05	3
0	26398	40.1	1
0	26399	40.1	2
0	26400	40.1	2
0	26401	40.1	3
0	26405	40.1	1
0	26406	40.1	2
0	26407	40.1	2
0	26408	40.1	3
0	26428	40.15	1
0	26429	40.15	2
0	26430	40.15	2
0	26431	40.15	3
0	26542	40.2	1
0	26543	40.2	2
0	26544	40.2	2
0	26545	40.2	3
0	26549	40.2	1
0	26550	40.2	2
0	26551	40.2	2
0	26552	40.2	3
0	26582	40.25	1
0	26583	40.25	2
0	26584	40.25	2
0	26585	40.25	3
0	26594	40.3	1
0	26595	40.3	2
0	26596	40.3	2
0	26597	40.3	3
0	26601	40.3	1
0	26602	40.3	2
0	26603	40.3	2
0	26604	40.3	3
0	26621	40.35	1
0	26622	40.35	2
0	26623	40.35	2
0	26624	40.35	3
0	26646	40.4	1
0	26647	40.4	2
0	26648	40.4	2
0	26649	40.4	3
0	26653	40.4	1
0	26654	40.4	2
0	26655	40.4	2
0	26656	40.4	3
0	26673	40.45	1
0	26674	40.45	2
0	26675	40.45	2
0	26676	40.45	3
0	26685	40.5	1
0	26686	40.5	2
0	26687	40.5	2
0	26688	40.5	3
0	26692	40.5	1
0	26693	40.5	2
0	26694	40.5	2
0	26695	40.5	3
0	26712	40.55	1
0	26713	40.55	2
0	26714	40.55	2
0	26715	40.55	3
0	26724	40.6	1
0	26725	40.6	2
0	26726	40.6	2
0	26727	40.6	3
0	26731	40.6	1
0	26732	40.6	2
0	26733	40.6	2
0	26734	40.6	3
0	26751	40.65	1
0	26752	40.65	2
0	26753	40.65	2
0	26754	40.65	3
0	26763	40.7	1
0	26764	40.7	2
0	26765	40.7	2
0	26766	40.7	3
0	26770	40.7	1
0	26771	40.7	2
0	26772	40.7	2
0	26773	40.7	3
0	26868	40.75	1
0	26869	40.75	2
0	26870	40.75	2
0	26871	40.75	3
0	26883	40.8	1
0	26884	40.8	2
0	26885	40.8	2
0	26886	40.8	3
0	26890	40.8	1
0	26891	40.8	2
0	26892	40.8	2
0	26893	40.8	3
0	26910	40.85	1
0	26911	40.85	2
0	26912	40.85	2
0	26913	40.85	3
0	26922	40.9	1
0	26923	40.9	2
0	26924	40.9	2
0	26925	40.9	3
0	26929	40.9	1
0	26930	40.9	2
0	26931	40.9	2
0	26932	40.9	3
0	26949	40.95	1
0	26950	40.95	2
0	26951	40.95	2
0	26952	40.95	3
0	26961	41	1
0	26962	41	2
0	26963	41	2
0	26964	41	3
0	26968	41	1
0	26969	41	2
0	26970	41	2
0	26971	41	3
0	26988	41.05	1
0	26989	41.05	2
0	26990	41.05	2
0	26991	41.05	3
0	27003	41.1	1
0	27004	41.1	2
0	27005	41.1	2
0	27006	41.1	3
0	27010	41.1	1
0	27011	41.1	2
0	27012	41.1	2
0	27013	41.1	3
0	27033	41.15	1
0	27034	41.15	2
0	27035	41.15	2
0	27036	41.15	3
0	27045	41.2	1
0	27046	41.2	2
0	27047	41.2	2
0	27048	41.2	3
0	27052	41.2	1
0	27053	41.2	2
0	27054	41.2	2
0	27055	41.2	3
0	27072	41.25	1
0	27073	41.25	2
0	27074	41.25	2
0	27075	41.25	3
0	27176	41.3	1
0	27177	41.3	2
0	27178	41.3	2
0	27179	41.3	3
0	27183	41.3	1
0	27184	41.3	2
0	27185	41.3	2
0	27186	41.3	3
0	27203	41.35	1
0	27204	41.35	2
0	27205	41.35	2
0	27206	41.35	3
0	27215	41.4	1
0	27216	41.4	2
0	27217	41.4	2
0	27218	41.4	3
0	27222	41.4	1
0	27223	41.4	2
0	27224	41.4	2
0	27225	41.4	3
0	27242	41.45	1
0	27243	41.45	2
0	27244	41.45	2
0	27245	41.45	3
0	27254	41.5	1
0	27255	41.5	2
0	27256	41.5	2
0	27257	41.5	3
0	27261	41.5	1
0	27262	41.5	2
0	27263	41.5	2
0	27264	41.5	3
0	27281	41.55	1
0	27282	41.55	2
0	27283	41.55	2
0	27284	41.55	3
0	27293	41.6	1
0	27294	41.6	2
0	27295	41.6	2
0	27296	41.6	3
0	27300	41.6	1
0	27301	41.6	2
0	27302	41.6	2
0	27303	41.6	3
0	27320	41.65	1
0	27321	41.65	2
0	27322	41.65	2
0	27323	41.65	3
0	27332	41.7	1
0	27333	41.7	2
0	27334	41.7	2
0	27335	41.7	3
0	27339	41.7	1
0	27340	41.7	2
0	27341	41.7	2
0	27342	41.7	3
0	27359	41.75	1
0	27360	41.75	2
0	27361	41.75	2
0	27362	41.75	3
0	27371	41.8	1
0	27372	41.8	2
0	27373	41.8	2
0	27374	41.8	3
0	27378	41.8	1
0	27379	41.8	2
0	27380	41.8	2
0	27381	41.8	3
0	27453	41.85	1
0	27454	41.85	2
0	27455	41.85	2
0	27456	41.85	3
0	27465	41.9	1
0	27466	41.9	2
0	27467	41.9	2
0	27468	41.9	3
0	27472	41.9	1
0	27473	41.9	2
0	27474	41.9	2
0	27475	41.9	3
0	27492	41.95	1
0	27493	41.95	2
0	27494	41.95	2
0	27495	41.95	3
0	27530	42	1
0	27531	42	2
0	27532	42	2
0	27533	42	3
0	27537	42	1
0	27538	42	2
0	27539	42	2
0	27540	42	3
0	27557	42.05	1
0	27558	42.05	2
0	27559	42.05	2
0	27560	42.05	3
0	27572	42.1	1
0	27573	42.1	2
0	27574	42.1	2
0	27575	42.1	3
0	27579	42.1	1
0	27580	42.1	2
0	27581	42.1	2
0	27582	42.1	3
0	27615	42.15	1
0	27616	42.15	2
0	27617	42.15	2
0	27618	42.15	3
0	27627	42.2	1
0	27628	42.2	2
0	27629	42.2	2
0	27630	42.2	3
0	27634	42.2	1
0	27635	42.2	2
0	27636	42.2	2
0	27637	42.2	3
0	27654	42.25	1
0	27655	42.25	2
0	27656	42.25	2
0	27657	42.25	3
0	27666	42.3	1
0	27667	42.3	2
0	27668	42.3	2
0	27669	42.3	3
0	27673	42.3	1
0	27674	42.3	2
0	27675	42.3	2
0	27676	42.3	3
0	27693	42.35	1
0	27694	42.35	2
0	27695	42.35	2
0	27696	42.35	3
0	27772	42.4	1
0	27773	42.4	2
0	27774	42.4	2
0	27775	42.4	3
0	27779	42.4	1
0	27780	42.4	2
0	27781	42.4	2
0	27782	42.4	3
0	27799	42.45	1
0	27800	42.45	2
0	27801	42.45	2
0	27802	42.45	3
0	27811	42.5	1
0	27812	42.5	2
0	27813	42.5	2
0	27814	42.5	3
0	27818	42.5	1
0	27819	42.5	2
0	27820	42.5	2
0	27821	42.5	3
0	27877	42.55	1
0	27878	42.55	2
0	27879	42.55	2
0	27880	42.55	3
0	27889	42.6	1
0	27890	42.6	2
0	27891	42.6	2
0	27892	42.6	3
0	27896	42.6	1
0	27897	42.6	2
0	27898	42.6	2
0	27899	42.6	3
0	27916	42.65	1
0	27917	42.65	2
0	27918	42.65	2
0	27919	42.65	3
0	27941	42.7	1
0	27942	42.7	2
0	27943	42.7	2
0	27944	42.7	3
0	27948	42.7	1
0	27949	42.7	2
0	27950	42.7	2
0	27951	42.7	3
0	27968	42.75	1
0	27969	42.75	2
0	27970	42.75	2
0	27971	42.75	3
0	27980	42.8	1
0	27981	42.8	2
0	27982	42.8	2
0	27983	42.8	3
0	27987	42.8	1
0	27988	42.8	2
0	27989	42.8	2
0	27990	42.8	3
0	28007	42.85	1
0	28008	42.85	2
0	28009	42.85	2
0	28010	42.85	3
0	28019	42.9	1
0	28020	42.9	2
0	28021	42.9	2
0	28022	42.9	3
0	28026	42.9	1
0	28027	42.9	2
0	28028	42.9	2
0	28029	42.9	3
0	28095	42.95	1
0	28096	42.95	2
0	28097	42.95	2
0	28098	42.95	3
0	28107	43	1
0	28108	43	2
0	28109	43	2
0	28110	43	3
0	28114	43	1
0	28115	43	2
0	28116	43	2
0	28117	43	3
0	28134	43.05	1
0	28135	43.05	2
0	28136	43.05	2
0	28137	43.05	3
0	28188	43.1	1
0	28189	43.1	2
0	28190	43.1	2
0	28191	43.1	3
0	28195	43.1	1
0	28196	43.1	2
0	28197	43.1	2
0	28198	43.1	3
0	28218	43.15	1
0	28219	43.15	2
0	28220	43.15	2
0	28221	43.15	3
0	28230	43.2	1
0	28231	43.2	2
0	28232	43.2	2
0	28233	43.2	3
0	28237	43.2	1
0	28238	43.2	2
0	28239	43.2	2
0	28240	43.2	3
0	28267	43.25	1
0	28268	43.25	2
0	28269	43.25	2
0	28270	43.25	3
0	28279	43.3	1
0	28280	43.3	2
0	28281	43.3	2
0	28282	43.3	3
0	28286	43.3	1
0	28287	43.3	2
0	28288	43.3	2
0	28289	43.3	3
0	28306	43.35	1
0	28307	43.35	2
0	28308	43.35	2
0	28309	43.35	3
0	28318	43.4	1
0	28319	43.4	2
0	28320	43.4	2
0	28321	43.4	3
0	28325	43.4	1
0	28326	43.4	2
0	28327	43.4	2
0	28328	43.4	3
0	28345	43.45	1
0	28346	43.45	2
0	28347	43.45	2
0	28348	43.45	3
0	28435	43.5	1
0	28436	43.5	2
0	28437	43.5	2
0	28438	43.5	3
0	28442	43.5	1
0	28443	43.5	2
0	28444	43.5	2
0	28445	43.5	3
0	28472	43.55	1
0	28473	43.55	2
0	28474	43.55	2
0	28475	43.55	3
0	28484	43.6	1
0	28485	43.6	2
0	28486	43.6	2
0	28487	43.6	3
0	28491	43.6	1
0	28492	43.6	2
0	28493	43.6	2
0	28494	43.6	3
0	28547	43.65	1
0	28548	43.65	2
0	28549	43.65	2
0	28550	43.65	3
0	28559	43.7	1
0	28560	43.7	2
0	28561	43.7	2
0	28562	43.7	3
0	28566	43.7	1
0	28567	43.7	2
0	28568	43.7	2
0	28569	43.7	3
0	28586	43.75	1
0	28587	43.75	2
0	28588	43.75	2
0	28589	43.75	3
0	28608	43.8	1
0	28609	43.8	2
0	28610	43.8	2
0	28611	43.8	3
0	28615	43.8	1
0	28616	43.8	2
0	28617	43.8	2
0	28618	43.8	3
0	28635	43.85	1
0	28636	43.85	2
0	28637	43.85	2
[...]
2	2322	3.370732732264	2115
2	2718	3.906855279691	2256
2	3114	4.456853252758	2397
2	3119	4.456856382318	2538
2	3124	4.456893258609	2679
2	3143	4.47069536	2820
2	3148	4.470733722462	2961
2	3550	5.006857701045	3102
2	3560	5.020697737067	3243
2	3956	5.556852959212	3384
2	3961	5.556859242339	3525
2	3966	5.556895943516	3666
2	3985	5.57069536	3807
2	3990	5.57073408	3948
2	4398	6.106861015256	4089
2	4408	6.120701062953	4230
2	4798	6.656853469519	4371
2	4803	6.656863031423	4512
2	4808	6.656899179235	4653
2	4827	6.67069536	4794
2	4832	6.67073408	4935
2	5252	7.206854021698	5076
2	5257	7.206865305056	5217
2	5262	7.206901157832	5358
2	5274	7.22069536	5499
2	5279	7.220705365731	5640
2	5284	7.22073408	5781
2	5302	7.234545426579	5922
2	5692	7.75686785299	6063
2	5702	7.770707920807	6204
2	6114	8.30685536	6345
2	6119	8.306870694722	6486
2	6124	8.306905902016	6627
2	6143	8.320695745986	6768
2	6148	8.32073408	6909
2	6534	8.856873852449	7050
2	6544	8.870713936196	7191
2	6956	9.40685536	7332
2	6961	9.406877351083	7473
2	6966	9.406911815489	7614
2	6985	9.420698265696	7755
2	6990	9.42073408	7896
2	7376	9.956881218218	8037
2	7386	9.970721320539	8178
2	7796	10.50685536	8319
2	7801	10.50688548402	8460
2	7806	10.50689408	8601
2	7824	10.520701650809	8742
2	8204	11.056890180995	8883
2	8600	11.602287202377	9024
2	8611	11.60685536	9165
2	8616	11.60689408	9306
2	8998	12.15685536	9447
2	9003	12.156868487464	9588
2	9017	12.17069536	9729
2	9468	12.82838086512	9870
2	9807	13.25685536	10011
2	9808	13.25685536	10152
2	9881	13.378394894223	10293
2	9891	13.392235075716	10434
2	10587	14.35225408	10575
2	10597	14.35685536	10716
2	11284	15.44259264	10857
2	11314	15.45685536	10998
2	11369	15.528462013287	11139
2	11379	15.542302257861	11280
2	12090	16.54259264	11421
2	12120	16.55685536	11562
2	12173	16.628503966	11703
2	12559	17.178526602115	11844
2	12893	17.64259264	11985
2	12923	17.65685536	12126
2	13288	18.19259264	12267
2	13334	18.20685536	12408
2	13373	18.278574088495	12549
2	13383	18.292414387347	12690
2	13994	19.29257408	12831
2	14004	19.29717536	12972
2	14386	19.878643123107	13113
2	14726	20.39257408	13254
2	14736	20.39717536	13395
2	15420	21.49257408	13536
2	15430	21.49717536	13677
2	15772	22.042845441212	13818
2	16112	22.59253536	13959
2	16118	22.592853479508	14100
2	16128	22.59719392	14241
2	16170	22.606693611924	14382
2	16180	22.620533743413	14523
2	16526	23.14253536	14664
2	16549	23.15221536	14805
2	17248	24.242533670021	14946
2	17253	24.24257408	15087
2	17945	25.342533571721	15228
2	17950	25.34257408	15369
2	18584	26.442533478918	15510
2	18589	26.44257408	15651
2	19035	27.19258909677	15792
2	19074	27.22026911635	15933
2	19084	27.23410912692	16074
2	19297	27.542533392179	16215
2	19302	27.54257408	16356
2	19958	28.642533312022	16497
2	19963	28.64257408	16638
2	20291	29.192533274561	16779
2	20296	29.19257408	16920
2	20972	30.292533205149	17061
2	20977	30.29257408	17202
2	21611	31.392533143418	17343
2	21616	31.39257408	17484
2	22289	32.492533089737	17625
2	22294	32.49257408	17766
2	22918	33.592533044437	17907
2	22923	33.59257408	18048
2	23267	34.142533025024	18189
2	23272	34.14257408	18330
2	23865	35.242532992844	18471
2	23870	35.24257408	18612
2	24422	36.342532955931	18753
2	24427	36.34257408	18894
2	24971	37.442533010973	19035
2	24976	37.442570958829	19176
2	25580	38.542533284817	19317
2	25585	38.542579757025	19458
2	26211	39.642533813929	19599
2	26216	39.642610950985	19740
2	26526	40.192534182907	19881
2	26531	40.19264030137	20022
2	27159	41.287913620708	20163
2	27169	41.292740252186	20304
2	27764	42.382895044448	20445
2	28418	43.482895044448	20586
2	28428	43.488189392828	20727
2	28465	43.502029301134	20868
2	29066	44.582896232542	21009
2	29076	44.588202690086	21150
2	29396	45.132897494128	21291
2	29406	45.138209876259	21432
2	30006	46.232900384857	21573
2	30586	47.33290378597	21714
2	31099	48.32858078804	21855
2	31109	48.342420911964	21996
2	31131	48.356261036001	22137
2	31206	48.432907728002	22278
2	31451	48.878590974035	22419
2	31795	49.428601480074	22560
2	31885	49.532912248738	22701
2	32449	50.528623219186	22842
2	32536	50.632917393461	22983
2	32836	51.182920216076	23124
2	33072	51.628645436718	23265
2	33082	51.642485574137	23406
2	33411	52.178656503002	23547
2	33501	52.28292639863	23688
2	34078	53.27867803108	23829
2	34168	53.382933352512	23970
2	34774	54.482941150451	24111
2	35000	54.878706315898	24252
2	35411	55.582949872604	24393
2	35729	56.132953651194	24534
2	35940	56.478729242582	24675
2	35950	56.492569328301	24816
2	36417	57.232954808564	24957
2	37030	58.332955990118	25098
2	37606	59.428348202781	25239
2	37906	59.978348935933	25380
2	37916	59.983252580327	25521
2	37926	59.99709258543	25662
2	38294	60.528349676608	25803
2	38916	61.628351180769	25944
2	39193	62.178351944371	26085
2	39835	63.278353494916	26226
2	40408	64.378355076986	26367
2	40994	65.487936682484	26508
2	41584	66.578358337643	26649
2	41908	67.138039188058	26790
2	42475	68.228360869542	26931
2	43091	69.32836259956	27072
2	43694	70.428364363843	27213
2	44307	71.528366162903	27354
2	44930	72.628367997254	27495
2	45226	73.17836892783	27636
2	46123	74.828371773932	27777
2	46426	75.378372740979	27918
2	47002	76.478373860823	28059
2	47574	77.578373860823	28200
2	47860	78.128373860823	28341
2	48435	79.228373860823	28482
2	49007	80.328373860823	28623
2	49612	81.432978622392	28764
2	50237	82.528373860823	28905
2	50865	83.478788774643	29046
2	50872	83.492628739657	29187
2	50909	83.53414863506	29328
2	50933	83.575668531002	29469
2	50974	83.603348461928	29610
2	51008	83.61718842748	29751
2	51019	83.630860346165	29892
2	51042	83.658708324492	30033
2	51050	83.686388256129	30174
2	51087	83.700228222035	30315
2	51101	83.714068188	30456
2	51123	83.755588086247	30597
2	51135	83.797107985017	30738
2	51225	83.907827717617	30879
2	51236	83.92166768445	31020
2	51243	83.935507651341	31161
2	51267	83.977027552354	31302
2	51274	83.990867519471	31443
2	51312	84.004707486646	31584
2	51321	84.032387421164	31725
2	51341	84.060067355908	31866
2	51352	84.087747290876	32007
2	51392	84.115427226068	32148
2	51402	84.129267193747	32289
2	51429	84.156947129273	32430
2	51463	84.170787097119	32571
2	51470	84.180860346165	32712
2	51481	84.198467032978	32853
2	51518	84.226146969057	32994
2	52100	85.278373860823	33135
2	52715	86.378373860823	33276
2	53626	88.028373860823	33417
2	53924	88.578373860823	33558
2	54239	89.128373860823	33699
2	54846	90.228373860823	33840
2	56151	92.592605781507	33981
2	56207	92.661805781507	34122
2	56262	92.717165781507	34263
2	56283	92.758685781507	34404
2	56291	92.786365781507	34545
2	56324	92.800205781507	34686
2	56351	92.855565781507	34827
2	56389	92.924765781507	34968
2	56418	92.952445781507	35109
2	56478	93.007805781507	35250
2	56488	93.021645781507	35391
2	56495	93.035485781507	35532
2	56515	93.063165781507	35673
2	56522	93.077005781507	35814
2	56532	93.090845781507	35955
2	56567	93.132365781507	36096
2	56587	93.160045781507	36237
2	56595	93.187725781507	36378
2	56628	93.229245781507	36519
2	56652	93.270765781507	36660
2	56662	93.284605781507	36801
2	57047	93.720285781507	36942
2	57055	93.747965781507	37083
2	57077	93.761805781507	37224
2	57087	93.775645781507	37365
2	57097	93.789485781507	37506
2	57129	93.817165781507	37647
2	57139	93.831005781507	37788
2	57162	93.858685781507	37929
2	57172	93.872525781507	38070
2	57209	93.927885781507	38211
2	57229	93.955565781507	38352
2	57283	94.038605781507	38493
2	57306	94.052445781507	38634
2	57337	94.093965781507	38775
2	57372	94.121645781507	38916
2	57407	94.163165781507	39057
2	57415	94.177005781507	39198
2	57422	94.190845781507	39339
2	57455	94.204685781507	39480
2	57463	94.232365781507	39621
2	61601	102.228765781507	39762
2	61611	102.242605781507	39903
2	61644	102.284125781507	40044
2	61706	102.325645781507	40185
2	61713	102.339485781507	40326
2	61732	102.353325781507	40467
2	61743	102.381005781507	40608
2	61778	102.422525781507	40749
2	61800	102.477885781507	40890
2	61835	102.505565781507	41031
2	61843	102.533245781507	41172
2	61865	102.560925781507	41313
2	61873	102.588605781507	41454
2	61914	102.616285781507	41595
2	61921	102.630125781507	41736
2	61931	102.643965781507	41877
2	64581	107.628765781507	42018
2	64606	107.684125781507	42159
2	64616	107.697965781507	42300
2	64659	107.711805781507	42441
2	64666	107.725645781507	42582
2	64691	107.753325781507	42723
2	64705	107.767165781507	42864
2	64716	107.794845781507	43005
2	64770	107.822525781507	43146
2	64799	107.850205781507	43287
2	64809	107.864045781507	43428
2	64817	107.891725781507	43569
2	64856	107.947085781507	43710
2	64887	107.960925781507	43851
2	65593	109.228765781507	43992
2	65614	109.270285781507	44133
2	65621	109.284125781507	44274
2	65628	109.297965781507	44415
2	65693	109.367165781507	44556
2	65700	109.381005781507	44697
2	65736	109.408685781507	44838
2	65764	109.422525781507	44979
2	65774	109.436365781507	45120
2	70650	118.892605781507	45261
2	70681	118.906445781507	45402
2	70692	118.934125781507	45543
2	70702	118.947965781507	45684
2	70733	118.961805781507	45825
2	70747	118.975645781507	45966
2	70754	118.989485781507	46107
2	70790	119.003325781507	46248
2	70821	119.058685781507	46389
2	75602	128.278765781507	46530
2	75609	128.292605781507	46671
2	75642	128.334125781507	46812
2	75649	128.347965781507	46953
2	76510	129.911177727843	47094
2	76522	129.938857727843	47235
2	76543	129.980377727843	47376
2	76550	129.994217727843	47517
2	80360	137.434125781507	47658
2	80367	137.447965781507	47799
2	86075	148.406445781507	47940
2	86093	148.434125781507	48081
2	86122	148.461805781507	48222
2	86133	148.475645781507	48363
2	87804	151.634125781507	48504
2	87814	151.647965781507	48645
2	88665	153.206445781507	48786
2	88675	153.220285781507	48927
2	92397	160.456445781507	49068
2	94284	164.206445781507	49209
2	98766	173.028765781507	49350
2	98776	173.042605781507	49491
2	98800	173.056445781507	49632
3	650	1.156852969044	141
3	655	1.15685536	282
3	660	1.156892807505	423
3	680	1.170692966851	564
3	685	1.17069536	705
3	690	1.170732807505	846
3	1476	2.256853243533	987
3	1481	2.25685536	1128
3	1486	2.256889987262	1269
3	1504	2.270732395659	1410
3	1900	2.806853710065	1551
3	2294	3.356854389323	1692
3	2299	3.35685536	1833
3	2304	3.35689082995	1974
3	2322	3.370732732264	2115
3	2718	3.906855279691	2256
3	3114	4.456853252758	2397
3	3119	4.456856382318	2538
3	3124	4.456893258609	2679
3	3143	4.47069536	2820
3	3148	4.470733722462	2961
3	3550	5.006857701045	3102
3	3560	5.020697737067	3243
3	3956	5.556852959212	3384
3	3961	5.556859242339	3525
3	3966	5.556895943516	3666
3	3985	5.57069536	3807
3	3990	5.57073408	3948
3	4398	6.106861015256	4089
3	4408	6.120701062953	4230
3	4798	6.656853469519	4371
3	4803	6.656863031423	4512
3	4808	6.656899179235	4653
3	4827	6.67069536	4794
3	4832	6.67073408	4935
3	5252	7.206854021698	5076
3	5257	7.206865305056	5217
3	5262	7.206901157832	5358
3	5274	7.22069536	5499
3	5279	7.220705365731	5640
3	5284	7.22073408	5781
3	5302	7.234545426579	5922
3	5692	7.75686785299	6063
3	5702	7.770707920807	6204
3	6114	8.30685536	6345
3	6119	8.306870694722	6486
3	6124	8.306905902016	6627
3	6143	8.320695745986	6768
3	6148	8.32073408	6909
3	6534	8.856873852449	7050
3	6544	8.870713936196	7191
3	6956	9.40685536	7332
3	6961	9.406877351083	7473
3	6966	9.406911815489	7614
3	6985	9.420698265696	7755
3	6990	9.42073408	7896
3	7376	9.956881218218	8037
3	7386	9.970721320539	8178
3	7796	10.50685536	8319
3	7801	10.50688548402	8460
3	7806	10.50689408	8601
3	7824	10.520701650809	8742
3	8204	11.056890180995	8883
3	8600	11.602287202377	9024
3	8611	11.60685536	9165
3	8616	11.60689408	9306
3	8998	12.15685536	9447
3	9003	12.156868487464	9588
3	9017	12.17069536	9729
3	9468	12.82838086512	9870
3	9807	13.25685536	10011
3	9808	13.25685536	10152
3	9881	13.378394894223	10293
3	9891	13.392235075716	10434
3	10587	14.35225408	10575
3	10597	14.35685536	10716
3	11284	15.44259264	10857
3	11314	15.45685536	10998
3	11369	15.528462013287	11139
3	11379	15.542302257861	11280
3	12090	16.54259264	11421
3	12120	16.55685536	11562
3	12173	16.628503966	11703
3	12559	17.178526602115	11844
3	12893	17.64259264	11985
3	12923	17.65685536	12126
3	13288	18.19259264	12267
3	13334	18.20685536	12408
3	13373	18.278574088495	12549
3	13383	18.292414387347	12690
3	13994	19.29257408	12831
3	14004	19.29717536	12972
3	14386	19.878643123107	13113
3	14726	20.39257408	13254
3	14736	20.39717536	13395
3	15420	21.49257408	13536
3	15430	21.49717536	13677
3	15772	22.042845441212	13818
3	16112	22.59253536	13959
3	16118	22.592853479508	14100
3	16128	22.59719392	14241
3	16170	22.606693611924	14382
3	16180	22.620533743413	14523
3	16526	23.14253536	14664
3	16549	23.15221536	14805
3	17248	24.242533670021	14946
3	17253	24.24257408	15087
3	17945	25.342533571721	15228
3	17950	25.34257408	15369
3	18584	26.442533478918	15510
3	18589	26.44257408	15651
3	19035	27.19258909677	15792
3	19074	27.22026911635	15933
3	19084	27.23410912692	16074
3	19297	27.542533392179	16215
3	19302	27.54257408	16356
3	19958	28.642533312022	16497
3	19963	28.64257408	16638
3	20291	29.192533274561	16779
3	20296	29.19257408	16920
3	20972	30.292533205149	17061
3	20977	30.29257408	17202
3	21611	31.392533143418	17343
3	21616	31.39257408	17484
3	22289	32.492533089737	17625
3	22294	32.49257408	17766
3	22918	33.592533044437	17907
3	22923	33.59257408	18048
3	23267	34.142533025024	18189
3	23272	34.14257408	18330
3	23865	35.242532992844	18471
3	23870	35.24257408	18612
3	24422	36.342532955931	18753
3	24427	36.34257408	18894
3	24971	37.442533010973	19035
3	24976	37.442570958829	19176
3	25580	38.542533284817	19317
3	25585	38.542579757025	19458
3	26211	39.642533813929	19599
3	26216	39.642610950985	19740
3	26526	40.192534182907	19881
3	26531	40.19264030137	20022
3	27159	41.287913620708	20163
3	27169	41.292740252186	20304
3	27764	42.382895044448	20445
3	28418	43.482895044448	20586
3	28428	43.488189392828	20727
3	28465	43.502029301134	20868
3	29066	44.582896232542	21009
3	29076	44.588202690086	21150
3	29396	45.132897494128	21291
3	29406	45.138209876259	21432
3	30006	46.232900384857	21573
3	30586	47.33290378597	21714
3	31099	48.32858078804	21855
3	31109	48.342420911964	21996
3	31131	48.356261036001	22137
3	31206	48.432907728002	22278
3	31451	48.878590974035	22419
3	31795	49.428601480074	22560
3	31885	49.532912248738	22701
3	32449	50.528623219186	22842
3	32536	50.632917393461	22983
3	32836	51.182920216076	23124
3	33072	51.628645436718	23265
3	33082	51.642485574137	23406
3	33411	52.178656503002	23547
3	33501	52.28292639863	23688
3	34078	53.27867803108	23829
3	34168	53.382933352512	23970
3	34774	54.482941150451	24111
3	35000	54.878706315898	24252
3	35411	55.582949872604	24393
3	35729	56.132953651194	24534
3	35940	56.478729242582	24675
3	35950	56.492569328301	24816
3	36417	57.232954808564	24957
3	37030	58.332955990118	25098
3	37606	59.428348202781	25239
3	37906	59.978348935933	25380
3	37916	59.983252580327	25521
3	37926	59.99709258543	25662
3	38294	60.528349676608	25803
3	38916	61.628351180769	25944
3	39193	62.178351944371	26085
3	39835	63.278353494916	26226
3	40408	64.378355076986	26367
3	40994	65.487936682484	26508
3	41584	66.578358337643	26649
3	41908	67.138039188058	26790
3	42475	68.228360869542	26931
3	43091	69.32836259956	27072
3	43694	70.428364363843	27213
3	44307	71.528366162903	27354
3	44930	72.628367997254	27495
3	45226	73.17836892783	27636
3	46123	74.828371773932	27777
3	46426	75.378372740979	27918
3	47002	76.478373860823	28059
3	47574	77.578373860823	28200
3	47860	78.128373860823	28341
3	48435	79.228373860823	28482
3	49007	80.328373860823	28623
3	49612	81.432978622392	28764
3	50237	82.528373860823	28905
3	50865	83.478788774643	29046
3	50872	83.492628739657	29187
3	50909	83.53414863506	29328
3	50933	83.575668531002	29469
3	50974	83.603348461928	29610
3	51008	83.61718842748	29751
3	51019	83.630860346165	29892
3	51042	83.658708324492	30033
3	51050	83.686388256129	30174
3	51087	83.700228222035	30315
3	51101	83.714068188	30456
3	51123	83.755588086247	30597
3	51135	83.797107985017	30738
3	51225	83.907827717617	30879
3	51236	83.92166768445	31020
3	51243	83.935507651341	31161
3	51267	83.977027552354	31302
3	51274	83.990867519471	31443
3	51312	84.004707486646	31584
3	51321	84.032387421164	31725
3	51341	84.060067355908	31866
3	51352	84.087747290876	32007
3	51392	84.115427226068	32148
3	51402	84.129267193747	32289
3	51429	84.156947129273	32430
3	51463	84.170787097119	32571
3	51470	84.180860346165	32712
3	51481	84.198467032978	32853
3	51518	84.226146969057	32994
3	52100	85.278373860823	33135
3	52715	86.378373860823	33276
3	53626	88.028373860823	33417
3	53924	88.578373860823	33558
3	54239	89.128373860823	33699
3	54846	90.228373860823	33840
3	56151	92.592605781507	33981
3	56207	92.661805781507	34122
3	56262	92.717165781507	34263
3	56283	92.758685781507	34404
3	56291	92.786365781507	34545
3	56324	92.800205781507	34686
3	56351	92.855565781507	34827
3	56389	92.924765781507	34968
3	56418	92.952445781507	35109
3	56478	93.007805781507	35250
3	56488	93.021645781507	35391
3	56495	93.035485781507	35532
3	56515	93.063165781507	35673
3	56522	93.077005781507	35814
3	56532	93.090845781507	35955
3	56567	93.132365781507	36096
3	56587	93.160045781507	36237
3	56595	93.187725781507	36378
3	56628	93.229245781507	36519
3	56652	93.270765781507	36660
3	56662	93.284605781507	36801
3	57047	93.720285781507	36942
3	57055	93.747965781507	37083
3	57077	93.761805781507	37224
3	57087	93.775645781507	37365
3	57097	93.789485781507	37506
3	57129	93.817165781507	37647
3	57139	93.831005781507	37788
3	57162	93.858685781507	37929
3	57172	93.872525781507	38070
3	57209	93.927885781507	38211
3	57229	93.955565781507	38352
3	57283	94.038605781507	38493
3	57306	94.052445781507	38634
3	57337	94.093965781507	38775
3	57372	94.121645781507	38916
3	57407	94.163165781507	39057
3	57415	94.177005781507	39198
3	57422	94.190845781507	39339
3	57455	94.204685781507	39480
3	57463	94.232365781507	39621
3	61601	102.228765781507	39762
3	61611	102.242605781507	39903
3	61644	102.284125781507	40044
3	61706	102.325645781507	40185
3	61713	102.339485781507	40326
3	61732	102.353325781507	40467
3	61743	102.381005781507	40608
3	61778	102.422525781507	40749
3	61800	102.477885781507	40890
3	61835	102.505565781507	41031
3	61843	102.533245781507	41172
3	61865	102.560925781507	41313
3	61873	102.588605781507	41454
3	61914	102.616285781507	41595
3	61921	102.630125781507	41736
3	61931	102.643965781507	41877
3	64581	107.628765781507	42018
3	64606	107.684125781507	42159
3	64616	107.697965781507	42300
3	64659	107.711805781507	42441
3	64666	107.725645781507	42582
3	64691	107.753325781507	42723
3	64705	107.767165781507	42864
3	64716	107.794845781507	43005
3	64770	107.822525781507	43146
3	64799	107.850205781507	43287
3	64809	107.864045781507	43428
3	64817	107.891725781507	43569
3	64856	107.947085781507	43710
3	64887	107.960925781507	43851
3	65593	109.228765781507	43992
3	65614	109.270285781507	44133
3	65621	109.284125781507	44274
3	65628	109.297965781507	44415
3	65693	109.367165781507	44556
3	65700	109.381005781507	44697
3	65736	109.408685781507	44838
3	65764	109.422525781507	44979
3	65774	109.436365781507	45120
3	70650	118.892605781507	45261
3	70681	118.906445781507	45402
3	70692	118.934125781507	45543
3	70702	118.947965781507	45684
3	70733	118.961805781507	45825
3	70747	118.975645781507	45966
3	70754	118.989485781507	46107
3	70790	119.003325781507	46248
3	70821	119.058685781507	46389
3	75602	128.278765781507	46530
3	75609	128.292605781507	46671
3	75642	128.334125781507	46812
3	75649	128.347965781507	46953
3	76510	129.911177727843	47094
3	76522	129.938857727843	47235
3	76543	129.980377727843	47376
3	76550	129.994217727843	47517
3	80360	137.434125781507	47658
3	80367	137.447965781507	47799
3	86075	148.406445781507	47940
3	86093	148.434125781507	48081
3	86122	148.461805781507	48222
3	86133	148.475645781507	48363
3	87804	151.634125781507	48504
3	87814	151.647965781507	48645
3	88665	153.206445781507	48786
3	88675	153.220285781507	48927
3	92397	160.456445781507	49068
3	94284	164.206445781507	49209
3	98766	173.028765781507	49350
3	98776	173.042605781507	49491
3	98800	173.056445781507	49632

