version 2
run Cgw-0-20191001-23:58:55-16116
attr configname Cgw
attr datetime 20191001-23:58:55
attr experiment Cgw
attr inifile SimV2.ini
attr iterationvars ""
attr iterationvarsf ""
attr measurement ""
attr network NetworkTormV2
attr processid 16116
attr repetition 0
attr replication #0
attr resultdir results
attr runnumber 0
attr seedset 0
param **.mobility.traceFile "\"paths/Cgw.movements\""
param **.numNodes 4
param **.application.usedRNG 1
param **.application.dataGenerationInterval 1s
param **.application.dataSizeInBytes 10
param **.application.ttl 999999s
param **application.nodesThatGen true
param **application.nodesGenMsg "\"0,1,2,3\""
param **application.startMultipleMsg false
param **application.numMultipleMsg 100
param **application.hopsListSize 50
param **.application.endGeneratingMsg 90s
param **.routingLayer "\"RoutingLqeGw\""
param **.routing.maximumCacheSize 5000byte
param **.routing.maximumHopCount 25
param **.routing.useTTL false
param **.routing.waitBFsend 0.5
param **.routing.max_age 999999s
param **.routing.gateway_list "\"\""
param **.routing.actual_gateway "\"\""
param **.routing.gwCheckPeriod 5s
param **.numNodes 2
param **.application.usedRNG 1
param **.application.dataGenerationInterval 1ms
param **.application.dataSizeInBytes 10
param **.application.ttl 999999s
param **application.destinationAddr "\"Wf:00:00:00:00:02\""
param **application.destinationBTAddr "\"Bt:00:00:00:00:02\""
param **application.nodesThatGen true
param **application.nodesGenMsg "\"0\""
param **application.startMultipleMsg true
param **application.numMultipleMsg 100
param **application.hopsListSize 50
param **.application.endGeneratingMsg 999999s
param **.routingLayer "\"RoutingLqeGw\""
param **.routing.maximumCacheSize 5000byte
param **.routing.maximumHopCount 25
param **.routing.useTTL false
param **.routing.waitBFsend 0.5
param **.routing.max_age 999999s
param **.routing.gateway_list "\"Wf:00:00:00:00:02;0|.\""
param **.routing.actual_gateway "\"Wf:00:00:00:00:02\""
param **.routing.gwCheckPeriod 5s
param **.neighboring.antiEntropyInterval 500ms
param **.neighboring.maximumRandomBackoffDuration 1s
param **.neighboring.delayPerDataMsg 0.1
param **neighboring.usedRNG 2
param **.neighboring.GWAddr "\"Wf:00:00:00:00:02\""
param **.neighboring.sendWifiFirst true
param **.neighboring.maxLengthGraph 20
param **.neighboring.max_age 999999s
param **.neighboring.max_absent_time 1s
param **.wirelessIfc.wirelessRange 40m
param **.wirelessIfc.neighbourScanInterval 50ms
param **.wirelessIfc.bandwidthBitRate 100000bps
param **.wirelessIfc.wirelessHeaderSize 32byte
param **.wirelessIfc.minSSI -90
param **.wirelessIfc.limitQueueTime 400ms
param **.wirelessIfc.my_limit_rate 0bps
param **.bluetoothIfc.wirelessRange 40m
param **.bluetoothIfc.neighbourScanInterval 100ms
param **.bluetoothIfc.bandwidthBitRate 100000bps
param **.bluetoothIfc.wirelessHeaderSize 16byte
param **.bluetoothIfc.minSSI -90
param **.mobilityType "\"BonnMotionMobility\""
param **.mobility.traceFile "\"paths/Moves2.movements\""
param **.mobility.is3D false
param **.mobility.nodeId -1

vector 0 NetworkTormV2 neighbourhoodSize:vector ETV
attr source neighbourhoodSize
vector 1 NetworkTormV2 deliveryRatio:vector ETV
attr source sum(totalDataBytesReceived)/sum(totalDataBytesReceivableByAllNodes)
vector 2 NetworkTormV2 dataBytesReceivedSum:vector ETV
attr source sum(dataBytesReceived)
vector 3 NetworkTormV2 totalBytesReceivedSum:vector ETV
attr source sum(totalBytesReceived)
0	13	0.05	1
0	14	0.05	2
0	15	0.05	1
0	16	0.05	0
0	30	0.1	1
0	32	0.1	2
0	34	0.1	1
0	36	0.1	0
0	38	0.1	1
0	39	0.1	2
0	40	0.1	1
0	41	0.1	0
0	64	0.15	1
0	65	0.15	2
0	66	0.15	1
0	67	0.15	0
0	80	0.2	1
0	81	0.2	2
0	82	0.2	1
0	83	0.2	0
0	85	0.2	1
0	86	0.2	2
0	87	0.2	1
0	88	0.2	0
0	107	0.25	1
0	108	0.25	2
0	109	0.25	1
0	110	0.25	0
0	123	0.3	1
0	124	0.3	2
0	125	0.3	1
0	126	0.3	0
0	128	0.3	1
0	129	0.3	2
0	130	0.3	1
0	131	0.3	0
0	150	0.35	1
0	151	0.35	2
0	152	0.35	1
0	153	0.35	0
0	166	0.4	1
0	167	0.4	2
0	168	0.4	1
0	169	0.4	0
0	171	0.4	1
0	172	0.4	2
0	173	0.4	1
0	174	0.4	0
0	193	0.45	1
0	194	0.45	2
0	195	0.45	1
0	196	0.45	0
0	209	0.5	1
0	210	0.5	2
0	211	0.5	1
0	212	0.5	0
0	214	0.5	1
0	215	0.5	2
0	216	0.5	1
0	217	0.5	0
0	236	0.55	1
0	237	0.55	2
0	238	0.55	1
0	239	0.55	0
0	252	0.6	1
0	253	0.6	2
0	254	0.6	1
0	255	0.6	0
0	257	0.6	1
0	258	0.6	2
0	259	0.6	1
0	260	0.6	0
0	279	0.65	1
0	280	0.65	2
0	281	0.65	1
0	282	0.65	0
0	295	0.7	1
0	296	0.7	2
0	297	0.7	1
0	298	0.7	0
0	300	0.7	1
0	301	0.7	2
0	302	0.7	1
0	303	0.7	0
0	322	0.75	1
0	323	0.75	2
0	324	0.75	1
0	325	0.75	0
0	338	0.8	1
0	339	0.8	2
0	340	0.8	1
0	341	0.8	0
0	343	0.8	1
0	344	0.8	2
0	345	0.8	1
0	346	0.8	0
0	365	0.85	1
0	366	0.85	2
0	367	0.85	1
0	368	0.85	0
0	381	0.9	1
0	382	0.9	2
0	383	0.9	1
0	384	0.9	0
0	386	0.9	1
0	387	0.9	2
0	388	0.9	1
0	389	0.9	0
0	408	0.95	1
0	409	0.95	2
0	410	0.95	1
0	411	0.95	0
0	424	1	1
0	425	1	2
0	426	1	1
0	427	1	0
0	429	1	1
0	430	1	2
0	431	1	1
0	432	1	0
0	451	1.05	1
0	452	1.05	2
0	453	1.05	1
0	454	1.05	0
0	471	1.1	1
0	472	1.1	2
0	473	1.1	1
0	474	1.1	0
0	476	1.1	1
0	477	1.1	2
0	478	1.1	1
0	479	1.1	0
0	558	1.15	1
0	559	1.15	2
0	560	1.15	1
0	561	1.15	0
0	574	1.2	1
0	575	1.2	2
0	576	1.2	1
0	577	1.2	0
0	579	1.2	1
0	580	1.2	2
0	581	1.2	1
0	582	1.2	0
0	601	1.25	1
0	602	1.25	2
0	603	1.25	1
0	604	1.25	0
0	617	1.3	1
0	618	1.3	2
0	619	1.3	1
0	620	1.3	0
0	622	1.3	1
0	623	1.3	2
0	624	1.3	1
0	625	1.3	0
0	644	1.35	1
0	645	1.35	2
0	646	1.35	1
0	647	1.35	0
0	660	1.4	1
0	661	1.4	2
0	662	1.4	1
0	663	1.4	0
0	665	1.4	1
0	666	1.4	2
0	667	1.4	1
0	668	1.4	0
0	687	1.45	1
0	688	1.45	2
0	689	1.45	1
0	690	1.45	0
0	703	1.5	1
0	704	1.5	2
0	705	1.5	1
0	706	1.5	0
0	708	1.5	1
0	709	1.5	2
0	710	1.5	1
0	711	1.5	0
0	730	1.55	1
0	731	1.55	2
0	732	1.55	1
0	733	1.55	0
0	746	1.6	1
0	747	1.6	2
0	748	1.6	1
0	749	1.6	0
0	751	1.6	1
0	752	1.6	2
0	753	1.6	1
0	754	1.6	0
0	773	1.65	1
0	774	1.65	2
0	775	1.65	1
0	776	1.65	0
0	845	1.7	1
0	846	1.7	2
0	847	1.7	1
0	848	1.7	0
0	850	1.7	1
0	851	1.7	2
0	852	1.7	1
0	853	1.7	0
0	872	1.75	1
0	873	1.75	2
0	874	1.75	1
0	875	1.75	0
0	888	1.8	1
0	889	1.8	2
0	890	1.8	1
0	891	1.8	0
0	893	1.8	1
0	894	1.8	2
0	895	1.8	1
0	896	1.8	0
0	915	1.85	1
0	916	1.85	2
0	917	1.85	1
0	918	1.85	0
0	931	1.9	1
0	932	1.9	2
0	933	1.9	1
0	934	1.9	0
0	936	1.9	1
0	937	1.9	2
0	938	1.9	1
0	939	1.9	0
0	958	1.95	1
0	959	1.95	2
0	960	1.95	1
0	961	1.95	0
0	974	2	1
0	975	2	2
0	976	2	1
0	977	2	0
0	979	2	1
0	980	2	2
0	981	2	1
0	982	2	0
0	1001	2.05	1
0	1002	2.05	2
0	1003	2.05	1
0	1004	2.05	0
0	1021	2.1	1
0	1022	2.1	2
0	1023	2.1	1
0	1024	2.1	0
0	1026	2.1	1
0	1027	2.1	2
0	1028	2.1	1
0	1029	2.1	0
0	1052	2.15	1
0	1053	2.15	2
0	1054	2.15	1
0	1055	2.15	0
0	1068	2.2	1
0	1069	2.2	2
0	1070	2.2	1
0	1071	2.2	0
0	1073	2.2	1
0	1074	2.2	2
0	1075	2.2	1
0	1076	2.2	0
0	1151	2.25	1
0	1152	2.25	2
0	1153	2.25	1
0	1154	2.25	0
0	1167	2.3	1
0	1168	2.3	2
0	1169	2.3	1
0	1170	2.3	0
0	1172	2.3	1
0	1173	2.3	2
0	1174	2.3	1
0	1175	2.3	0
0	1194	2.35	1
0	1195	2.35	2
0	1196	2.35	1
0	1197	2.35	0
0	1210	2.4	1
0	1211	2.4	2
0	1212	2.4	1
0	1213	2.4	0
0	1215	2.4	1
0	1216	2.4	2
0	1217	2.4	1
0	1218	2.4	0
0	1237	2.45	1
0	1238	2.45	2
0	1239	2.45	1
0	1240	2.45	0
0	1253	2.5	1
0	1254	2.5	2
0	1255	2.5	1
0	1256	2.5	0
0	1258	2.5	1
0	1259	2.5	2
0	1260	2.5	1
0	1261	2.5	0
0	1280	2.55	1
0	1281	2.55	2
0	1282	2.55	1
0	1283	2.55	0
0	1296	2.6	1
0	1297	2.6	2
0	1298	2.6	1
0	1299	2.6	0
0	1301	2.6	1
0	1302	2.6	2
0	1303	2.6	1
0	1304	2.6	0
0	1323	2.65	1
0	1324	2.65	2
0	1325	2.65	1
0	1326	2.65	0
0	1339	2.7	1
0	1340	2.7	2
0	1341	2.7	1
0	1342	2.7	0
0	1344	2.7	1
0	1345	2.7	2
0	1346	2.7	1
0	1347	2.7	0
0	1366	2.75	1
0	1367	2.75	2
0	1368	2.75	1
0	1369	2.75	0
0	1438	2.8	1
0	1439	2.8	2
0	1440	2.8	1
0	1441	2.8	0
0	1443	2.8	1
0	1444	2.8	2
0	1445	2.8	1
0	1446	2.8	0
0	1465	2.85	1
0	1466	2.85	2
0	1467	2.85	1
0	1468	2.85	0
0	1481	2.9	1
0	1482	2.9	2
0	1483	2.9	1
0	1484	2.9	0
0	1486	2.9	1
0	1487	2.9	2
0	1488	2.9	1
0	1489	2.9	0
0	1508	2.95	1
0	1509	2.95	2
0	1510	2.95	1
0	1511	2.95	0
0	1524	3	1
0	1525	3	2
0	1526	3	1
0	1527	3	0
0	1529	3	1
0	1530	3	2
0	1531	3	1
0	1532	3	0
0	1551	3.05	1
0	1552	3.05	2
0	1553	3.05	1
0	1554	3.05	0
0	1571	3.1	1
0	1572	3.1	2
0	1573	3.1	1
0	1574	3.1	0
0	1576	3.1	1
0	1577	3.1	2
0	1578	3.1	1
0	1579	3.1	0
0	1602	3.15	1
0	1603	3.15	2
0	1604	3.15	1
0	1605	3.15	0
0	1618	3.2	1
0	1619	3.2	2
0	1620	3.2	1
0	1621	3.2	0
0	1623	3.2	1
0	1624	3.2	2
0	1625	3.2	1
0	1626	3.2	0
0	1645	3.25	1
0	1646	3.25	2
0	1647	3.25	1
0	1648	3.25	0
0	1661	3.3	1
0	1662	3.3	2
0	1663	3.3	1
0	1664	3.3	0
0	1666	3.3	1
0	1667	3.3	2
0	1668	3.3	1
0	1669	3.3	0
0	1744	3.35	1
0	1745	3.35	2
0	1746	3.35	1
0	1747	3.35	0
0	1760	3.4	1
0	1761	3.4	2
0	1762	3.4	1
0	1763	3.4	0
0	1765	3.4	1
0	1766	3.4	2
0	1767	3.4	1
0	1768	3.4	0
0	1787	3.45	1
0	1788	3.45	2
0	1789	3.45	1
0	1790	3.45	0
0	1803	3.5	1
0	1804	3.5	2
0	1805	3.5	1
0	1806	3.5	0
0	1808	3.5	1
0	1809	3.5	2
0	1810	3.5	1
0	1811	3.5	0
0	1830	3.55	1
0	1831	3.55	2
0	1832	3.55	1
0	1833	3.55	0
0	1846	3.6	1
0	1847	3.6	2
0	1848	3.6	1
0	1849	3.6	0
0	1851	3.6	1
0	1852	3.6	2
0	1853	3.6	1
0	1854	3.6	0
0	1873	3.65	1
0	1874	3.65	2
0	1875	3.65	1
0	1876	3.65	0
0	1889	3.7	1
0	1890	3.7	2
0	1891	3.7	1
0	1892	3.7	0
0	1894	3.7	1
0	1895	3.7	2
0	1896	3.7	1
0	1897	3.7	0
0	1916	3.75	1
0	1917	3.75	2
0	1918	3.75	1
0	1919	3.75	0
0	1932	3.8	1
0	1933	3.8	2
0	1934	3.8	1
0	1935	3.8	0
0	1937	3.8	1
0	1938	3.8	2
0	1939	3.8	1
0	1940	3.8	0
0	1959	3.85	1
0	1960	3.85	2
0	1961	3.85	1
0	1962	3.85	0
0	2027	3.9	1
0	2028	3.9	2
0	2029	3.9	1
0	2030	3.9	0
0	2032	3.9	1
0	2033	3.9	2
0	2034	3.9	1
0	2035	3.9	0
0	2054	3.95	1
0	2055	3.95	2
0	2056	3.95	1
0	2057	3.95	0
0	2070	4	1
0	2071	4	2
0	2072	4	1
0	2073	4	0
0	2075	4	1
0	2076	4	2
0	2077	4	1
0	2078	4	0
0	2097	4.05	1
0	2098	4.05	2
0	2099	4.05	1
0	2100	4.05	0
0	2117	4.1	1
0	2118	4.1	2
0	2119	4.1	1
0	2120	4.1	0
0	2122	4.1	1
0	2123	4.1	2
0	2124	4.1	1
0	2125	4.1	0
0	2148	4.15	1
0	2149	4.15	2
0	2150	4.15	1
0	2151	4.15	0
0	2164	4.2	1
0	2165	4.2	2
0	2166	4.2	1
0	2167	4.2	0
0	2169	4.2	1
0	2170	4.2	2
0	2171	4.2	1
0	2172	4.2	0
0	2191	4.25	1
0	2192	4.25	2
0	2193	4.25	1
0	2194	4.25	0
0	2207	4.3	1
0	2208	4.3	2
0	2209	4.3	1
0	2210	4.3	0
0	2212	4.3	1
0	2213	4.3	2
0	2214	4.3	1
0	2215	4.3	0
0	2234	4.35	1
0	2235	4.35	2
0	2236	4.35	1
0	2237	4.35	0
0	2250	4.4	1
0	2251	4.4	2
0	2252	4.4	1
0	2253	4.4	0
0	2255	4.4	1
0	2256	4.4	2
0	2257	4.4	1
0	2258	4.4	0
0	2333	4.45	1
0	2334	4.45	2
0	2335	4.45	1
0	2336	4.45	0
0	2349	4.5	1
0	2350	4.5	2
0	2351	4.5	1
0	2352	4.5	0
0	2354	4.5	1
0	2355	4.5	2
0	2356	4.5	1
0	2357	4.5	0
0	2376	4.55	1
0	2377	4.55	2
0	2378	4.55	1
0	2379	4.55	0
0	2392	4.6	1
0	2393	4.6	2
0	2394	4.6	1
0	2395	4.6	0
0	2397	4.6	1
0	2398	4.6	2
0	2399	4.6	1
0	2400	4.6	0
0	2419	4.65	1
0	2420	4.65	2
0	2421	4.65	1
0	2422	4.65	0
0	2435	4.7	1
0	2436	4.7	2
0	2437	4.7	1
0	2438	4.7	0
0	2440	4.7	1
0	2441	4.7	2
0	2442	4.7	1
0	2443	4.7	0
0	2462	4.75	1
0	2463	4.75	2
0	2464	4.75	1
0	2465	4.75	0
0	2478	4.8	1
0	2479	4.8	2
0	2480	4.8	1
0	2481	4.8	0
0	2483	4.8	1
0	2484	4.8	2
0	2485	4.8	1
0	2486	4.8	0
0	2505	4.85	1
0	2506	4.85	2
0	2507	4.85	1
0	2508	4.85	0
0	2521	4.9	1
0	2522	4.9	2
0	2523	4.9	1
0	2524	4.9	0
0	2526	4.9	1
0	2527	4.9	2
0	2528	4.9	1
0	2529	4.9	0
0	2548	4.95	1
0	2549	4.95	2
0	2550	4.95	1
0	2551	4.95	0
0	2613	5	1
0	2614	5	2
0	2615	5	1
0	2616	5	0
0	2618	5	1
0	2619	5	2
0	2620	5	1
0	2621	5	0
0	2640	5.05	1
0	2641	5.05	2
0	2642	5.05	1
0	2643	5.05	0
0	2660	5.1	1
0	2661	5.1	2
0	2662	5.1	1
0	2663	5.1	0
0	2665	5.1	1
0	2666	5.1	2
0	2667	5.1	1
0	2668	5.1	0
0	2691	5.15	1
0	2692	5.15	2
0	2693	5.15	1
0	2694	5.15	0
0	2707	5.2	1
0	2708	5.2	2
0	2709	5.2	1
0	2710	5.2	0
0	2712	5.2	1
0	2713	5.2	2
0	2714	5.2	1
0	2715	5.2	0
0	2734	5.25	1
0	2735	5.25	2
0	2736	5.25	1
0	2737	5.25	0
0	2750	5.3	1
0	2751	5.3	2
0	2752	5.3	1
0	2753	5.3	0
0	2755	5.3	1
0	2756	5.3	2
0	2757	5.3	1
0	2758	5.3	0
0	2777	5.35	1
0	2778	5.35	2
0	2779	5.35	1
0	2780	5.35	0
0	2793	5.4	1
0	2794	5.4	2
0	2795	5.4	1
0	2796	5.4	0
0	2798	5.4	1
0	2799	5.4	2
0	2800	5.4	1
0	2801	5.4	0
0	2820	5.45	1
0	2821	5.45	2
0	2822	5.45	1
0	2823	5.45	0
0	2839	5.5	1
0	2840	5.5	2
0	2841	5.5	1
0	2842	5.5	0
0	2844	5.5	1
0	2845	5.5	2
0	2846	5.5	1
0	2847	5.5	0
0	2963	5.55	1
0	2964	5.55	2
0	2965	5.55	1
0	2966	5.55	0
0	3045	5.6	1
0	3046	5.6	2
0	3047	5.6	1
0	3048	5.6	0
0	3050	5.6	1
0	3051	5.6	2
0	3052	5.6	1
0	3053	5.6	0
0	3083	5.65	1
0	3084	5.65	2
0	3085	5.65	1
0	3086	5.65	0
0	3113	5.7	1
0	3114	5.7	2
0	3115	5.7	1
0	3116	5.7	0
0	3118	5.7	1
0	3119	5.7	2
0	3120	5.7	1
0	3121	5.7	0
0	3140	5.75	1
0	3141	5.75	2
0	3142	5.75	1
0	3143	5.75	0
0	3156	5.8	1
0	3157	5.8	2
0	3158	5.8	1
0	3159	5.8	0
0	3161	5.8	1
0	3162	5.8	2
0	3163	5.8	1
0	3164	5.8	0
0	3183	5.85	1
0	3184	5.85	2
0	3185	5.85	1
0	3186	5.85	0
0	3199	5.9	1
0	3200	5.9	2
0	3201	5.9	1
0	3202	5.9	0
0	3204	5.9	1
0	3205	5.9	2
0	3206	5.9	1
0	3207	5.9	0
0	3226	5.95	1
0	3227	5.95	2
0	3228	5.95	1
0	3229	5.95	0
0	3245	6	1
0	3246	6	2
0	3247	6	1
0	3248	6	0
0	3250	6	1
0	3251	6	2
0	3252	6	1
0	3253	6	0
0	3272	6.05	1
0	3273	6.05	2
0	3274	6.05	1
0	3275	6.05	0
0	3349	6.1	1
0	3350	6.1	2
0	3351	6.1	1
0	3352	6.1	0
0	3354	6.1	1
0	3355	6.1	2
0	3356	6.1	1
0	3357	6.1	0
0	3380	6.15	1
0	3381	6.15	2
0	3382	6.15	1
0	3383	6.15	0
0	3396	6.2	1
0	3397	6.2	2
0	3398	6.2	1
0	3399	6.2	0
0	3401	6.2	1
0	3402	6.2	2
0	3403	6.2	1
0	3404	6.2	0
0	3437	6.25	1
0	3438	6.25	2
0	3439	6.25	1
0	3440	6.25	0
0	3453	6.3	1
0	3454	6.3	2
0	3455	6.3	1
0	3456	6.3	0
0	3458	6.3	1
0	3459	6.3	2
0	3460	6.3	1
0	3461	6.3	0
0	3480	6.35	1
0	3481	6.35	2
0	3482	6.35	1
0	3483	6.35	0
0	3496	6.4	1
0	3497	6.4	2
0	3498	6.4	1
0	3499	6.4	0
0	3501	6.4	1
0	3502	6.4	2
0	3503	6.4	1
0	3504	6.4	0
0	3523	6.45	1
0	3524	6.45	2
0	3525	6.45	1
0	3526	6.45	0
0	3542	6.5	1
0	3543	6.5	2
0	3544	6.5	1
0	3545	6.5	0
0	3547	6.5	1
0	3548	6.5	2
0	3549	6.5	1
0	3550	6.5	0
0	3569	6.55	1
0	3570	6.55	2
0	3571	6.55	1
0	3572	6.55	0
0	3585	6.6	1
0	3586	6.6	2
0	3587	6.6	1
0	3588	6.6	0
0	3590	6.6	1
0	3591	6.6	2
0	3592	6.6	1
0	3593	6.6	0
0	3679	6.65	1
0	3680	6.65	2
0	3681	6.65	1
0	3682	6.65	0
0	3695	6.7	1
0	3696	6.7	2
0	3697	6.7	1
0	3698	6.7	0
0	3700	6.7	1
0	3701	6.7	2
0	3702	6.7	1
0	3703	6.7	0
0	3722	6.75	1
0	3723	6.75	2
0	3724	6.75	1
0	3725	6.75	0
0	3752	6.8	1
0	3753	6.8	2
0	3754	6.8	1
0	3755	6.8	0
0	3757	6.8	1
0	3758	6.8	2
0	3759	6.8	1
0	3760	6.8	0
0	3779	6.85	1
0	3780	6.85	2
0	3781	6.85	1
0	3782	6.85	0
0	3795	6.9	1
0	3796	6.9	2
0	3797	6.9	1
0	3798	6.9	0
0	3800	6.9	1
0	3801	6.9	2
0	3802	6.9	1
0	3803	6.9	0
0	3822	6.95	1
0	3823	6.95	2
0	3824	6.95	1
0	3825	6.95	0
0	3841	7	1
0	3842	7	2
0	3843	7	1
0	3844	7	0
0	3846	7	1
0	3847	7	2
0	3848	7	1
0	3849	7	0
0	3868	7.05	1
0	3869	7.05	2
0	3870	7.05	1
0	3871	7.05	0
0	3888	7.1	1
0	3889	7.1	2
0	3890	7.1	1
0	3891	7.1	0
0	3893	7.1	1
0	3894	7.1	2
0	3895	7.1	1
0	3896	7.1	0
0	3919	7.15	1
0	3920	7.15	2
0	3921	7.15	1
0	3922	7.15	0
0	3975	7.2	1
0	3976	7.2	2
0	3977	7.2	1
0	3978	7.2	0
0	3980	7.2	1
0	3981	7.2	2
0	3982	7.2	1
0	3983	7.2	0
0	4002	7.25	1
0	4003	7.25	2
0	4004	7.25	1
0	4005	7.25	0
0	4018	7.3	1
0	4019	7.3	2
0	4020	7.3	1
0	4021	7.3	0
0	4023	7.3	1
0	4024	7.3	2
0	4025	7.3	1
0	4026	7.3	0
0	4062	7.35	1
0	4063	7.35	2
0	4064	7.35	1
0	4065	7.35	0
0	4078	7.4	1
0	4079	7.4	2
0	4080	7.4	1
0	4081	7.4	0
0	4083	7.4	1
0	4084	7.4	2
0	4085	7.4	1
0	4086	7.4	0
0	4105	7.45	1
0	4106	7.45	2
0	4107	7.45	1
0	4108	7.45	0
0	4121	7.5	1
0	4122	7.5	2
0	4123	7.5	1
0	4124	7.5	0
0	4126	7.5	1
0	4127	7.5	2
0	4128	7.5	1
0	4129	7.5	0
0	4148	7.55	1
0	4149	7.55	2
0	4150	7.55	1
0	4151	7.55	0
0	4164	7.6	1
0	4165	7.6	2
0	4166	7.6	1
0	4167	7.6	0
0	4169	7.6	1
0	4170	7.6	2
0	4171	7.6	1
0	4172	7.6	0
0	4191	7.65	1
0	4192	7.65	2
0	4193	7.65	1
0	4194	7.65	0
0	4207	7.7	1
0	4208	7.7	2
0	4209	7.7	1
0	4210	7.7	0
0	4212	7.7	1
0	4213	7.7	2
0	4214	7.7	1
0	4215	7.7	0
0	4248	7.75	1
0	4249	7.75	2
0	4250	7.75	1
0	4251	7.75	0
0	4264	7.8	1
0	4265	7.8	2
0	4266	7.8	1
0	4267	7.8	0
0	4269	7.8	1
0	4270	7.8	2
0	4271	7.8	1
0	4272	7.8	0
0	4291	7.85	1
0	4292	7.85	2
0	4293	7.85	1
0	4294	7.85	0
0	4321	7.9	1
0	4322	7.9	2
0	4323	7.9	1
0	4324	7.9	0
0	4326	7.9	1
0	4327	7.9	2
0	4328	7.9	1
0	4329	7.9	0
0	4348	7.95	1
0	4349	7.95	2
0	4350	7.95	1
0	4351	7.95	0
0	4364	8	1
0	4365	8	2
0	4366	8	1
0	4367	8	0
0	4369	8	1
0	4370	8	2
0	4371	8	1
0	4372	8	0
0	4391	8.05	1
0	4392	8.05	2
0	4393	8.05	1
0	4394	8.05	0
0	4411	8.1	1
0	4412	8.1	2
0	4413	8.1	1
0	4414	8.1	0
0	4416	8.1	1
0	4417	8.1	2
0	4418	8.1	1
0	4419	8.1	0
0	4442	8.15	1
0	4443	8.15	2
0	4444	8.15	1
0	4445	8.15	0
0	4458	8.2	1
0	4459	8.2	2
0	4460	8.2	1
0	4461	8.2	0
0	4463	8.2	1
0	4464	8.2	2
0	4465	8.2	1
0	4466	8.2	0
0	4485	8.25	1
0	4486	8.25	2
0	4487	8.25	1
0	4488	8.25	0
0	4511	8.3	1
0	4512	8.3	2
0	4513	8.3	1
0	4514	8.3	0
0	4516	8.3	1
0	4517	8.3	2
0	4518	8.3	1
0	4519	8.3	0
0	4538	8.35	1
0	4539	8.35	2
0	4540	8.35	1
0	4541	8.35	0
0	4554	8.4	1
0	4555	8.4	2
0	4556	8.4	1
0	4557	8.4	0
0	4559	8.4	1
0	4560	8.4	2
0	4561	8.4	1
0	4562	8.4	0
0	4595	8.45	1
0	4596	8.45	2
0	4597	8.45	1
0	4598	8.45	0
0	4611	8.5	1
0	4612	8.5	2
0	4613	8.5	1
0	4614	8.5	0
0	4616	8.5	1
0	4617	8.5	2
0	4618	8.5	1
0	4619	8.5	0
0	4638	8.55	1
0	4639	8.55	2
0	4640	8.55	1
0	4641	8.55	0
0	4654	8.6	1
0	4655	8.6	2
0	4656	8.6	1
0	4657	8.6	0
0	4659	8.6	1
0	4660	8.6	2
0	4661	8.6	1
0	4662	8.6	0
0	4681	8.65	1
0	4682	8.65	2
0	4683	8.65	1
0	4684	8.65	0
0	4697	8.7	1
0	4698	8.7	2
0	4699	8.7	1
0	4700	8.7	0
0	4702	8.7	1
0	4703	8.7	2
0	4704	8.7	1
0	4705	8.7	0
0	4724	8.75	1
0	4725	8.75	2
0	4726	8.75	1
0	4727	8.75	0
0	4754	8.8	1
0	4755	8.8	2
0	4756	8.8	1
0	4757	8.8	0
0	4759	8.8	1
0	4760	8.8	2
0	4761	8.8	1
0	4762	8.8	0
0	4807	8.85	1
0	4808	8.85	2
0	4809	8.85	1
0	4810	8.85	0
0	4823	8.9	1
0	4824	8.9	2
0	4825	8.9	1
0	4826	8.9	0
0	4828	8.9	1
0	4829	8.9	2
0	4830	8.9	1
0	4831	8.9	0
0	4888	8.95	1
0	4889	8.95	2
0	4890	8.95	1
0	4891	8.95	0
0	4918	9	1
0	4919	9	2
0	4920	9	1
0	4921	9	0
0	4923	9	1
0	4924	9	2
0	4925	9	1
0	4926	9	0
0	4945	9.05	1
0	4946	9.05	2
0	4947	9.05	1
0	4948	9.05	0
0	4965	9.1	1
0	4966	9.1	2
0	4967	9.1	1
0	4968	9.1	0
0	4970	9.1	1
0	4971	9.1	2
0	4972	9.1	1
0	4973	9.1	0
0	4996	9.15	1
0	4997	9.15	2
0	4998	9.15	1
0	4999	9.15	0
0	5012	9.2	1
0	5013	9.2	2
0	5014	9.2	1
0	5015	9.2	0
0	5017	9.2	1
0	5018	9.2	2
0	5019	9.2	1
0	5020	9.2	0
0	5039	9.25	1
0	5040	9.25	2
0	5041	9.25	1
0	5042	9.25	0
0	5055	9.3	1
0	5056	9.3	2
0	5057	9.3	1
0	5058	9.3	0
0	5060	9.3	1
0	5061	9.3	2
0	5062	9.3	1
0	5063	9.3	0
0	5096	9.35	1
0	5097	9.35	2
0	5098	9.35	1
0	5099	9.35	0
0	5122	9.4	1
0	5123	9.4	2
0	5124	9.4	1
0	5125	9.4	0
0	5127	9.4	1
0	5128	9.4	2
0	5129	9.4	1
0	5130	9.4	0
0	5149	9.45	1
0	5150	9.45	2
0	5151	9.45	1
0	5152	9.45	0
0	5191	9.5	1
0	5192	9.5	2
0	5193	9.5	1
0	5194	9.5	0
0	5196	9.5	1
0	5197	9.5	2
0	5198	9.5	1
0	5199	9.5	0
0	5232	9.55	1
0	5233	9.55	2
0	5234	9.55	1
0	5235	9.55	0
0	5248	9.6	1
0	5249	9.6	2
0	5250	9.6	1
0	5251	9.6	0
0	5253	9.6	1
0	5254	9.6	2
0	5255	9.6	1
0	5256	9.6	0
0	5275	9.65	1
0	5276	9.65	2
0	5277	9.65	1
0	5278	9.65	0
0	5291	9.7	1
0	5292	9.7	2
0	5293	9.7	1
0	5294	9.7	0
0	5296	9.7	1
0	5297	9.7	2
0	5298	9.7	1
0	5299	9.7	0
0	5318	9.75	1
0	5319	9.75	2
0	5320	9.75	1
0	5321	9.75	0
0	5334	9.8	1
0	5335	9.8	2
0	5336	9.8	1
0	5337	9.8	0
0	5339	9.8	1
0	5340	9.8	2
0	5341	9.8	1
0	5342	9.8	0
0	5361	9.85	1
0	5362	9.85	2
0	5363	9.85	1
0	5364	9.85	0
0	5391	9.9	1
0	5392	9.9	2
0	5393	9.9	1
0	5394	9.9	0
0	5396	9.9	1
0	5397	9.9	2
0	5398	9.9	1
0	5399	9.9	0
0	5444	9.95	1
0	5445	9.95	2
0	5446	9.95	1
0	5447	9.95	0
0	5461	10	1
0	5462	10	2
0	5463	10	1
0	5464	10	0
0	5466	10	1
0	5467	10	2
0	5468	10	1
0	5469	10	0
0	5502	10.05	1
0	5503	10.05	2
0	5504	10.05	1
0	5505	10.05	0
0	5536	10.1	1
0	5537	10.1	2
0	5538	10.1	1
0	5539	10.1	0
0	5541	10.1	1
0	5542	10.1	2
0	5543	10.1	1
0	5544	10.1	0
0	5567	10.15	1
0	5568	10.15	2
0	5569	10.15	1
0	5570	10.15	0
0	5583	10.2	1
0	5584	10.2	2
0	5585	10.2	1
0	5586	10.2	0
0	5588	10.2	1
0	5589	10.2	2
0	5590	10.2	1
0	5591	10.2	0
0	5610	10.25	1
0	5611	10.25	2
0	5612	10.25	1
0	5613	10.25	0
0	5626	10.3	1
0	5627	10.3	2
0	5628	10.3	1
0	5629	10.3	0
0	5631	10.3	1
0	5632	10.3	2
0	5633	10.3	1
0	5634	10.3	0
0	5653	10.35	1
0	5654	10.35	2
0	5655	10.35	1
0	5656	10.35	0
0	5669	10.4	1
0	5670	10.4	2
0	5671	10.4	1
0	5672	10.4	0
0	5674	10.4	1
0	5675	10.4	2
0	5676	10.4	1
0	5677	10.4	0
0	5710	10.45	1
0	5711	10.45	2
0	5712	10.45	1
0	5713	10.45	0
0	5752	10.5	1
0	5753	10.5	2
0	5754	10.5	1
0	5755	10.5	0
0	5757	10.5	1
0	5758	10.5	2
0	5759	10.5	1
0	5760	10.5	0
0	5779	10.55	1
0	5780	10.55	2
0	5781	10.55	1
0	5782	10.55	0
0	5821	10.6	1
0	5822	10.6	2
0	5823	10.6	1
0	5824	10.6	0
0	5826	10.6	1
0	5827	10.6	2
0	5828	10.6	1
0	5829	10.6	0
0	5862	10.65	1
0	5863	10.65	2
0	5864	10.65	1
0	5865	10.65	0
0	5878	10.7	1
0	5879	10.7	2
0	5880	10.7	1
0	5881	10.7	0
0	5883	10.7	1
0	5884	10.7	2
0	5885	10.7	1
0	5886	10.7	0
0	5905	10.75	1
0	5906	10.75	2
0	5907	10.75	1
0	5908	10.75	0
0	5921	10.8	1
0	5922	10.8	2
0	5923	10.8	1
0	5924	10.8	0
0	5926	10.8	1
0	5927	10.8	2
0	5928	10.8	1
0	5929	10.8	0
0	5948	10.85	1
0	5949	10.85	2
0	5950	10.85	1
0	5951	10.85	0
0	5964	10.9	1
0	5965	10.9	2
0	5966	10.9	1
0	5967	10.9	0
0	5969	10.9	1
0	5970	10.9	2
0	5971	10.9	1
0	5972	10.9	0
0	5991	10.95	1
0	5992	10.95	2
0	5993	10.95	1
0	5994	10.95	0
0	6021	11	1
0	6022	11	2
0	6023	11	1
0	6024	11	0
0	6026	11	1
0	6027	11	2
0	6028	11	1
0	6029	11	0
0	6062	11.05	1
0	6063	11.05	2
0	6064	11.05	1
0	6065	11.05	0
0	6082	11.1	1
0	6083	11.1	2
0	6084	11.1	1
0	6085	11.1	0
0	6087	11.1	1
0	6088	11.1	2
0	6089	11.1	1
0	6090	11.1	0
0	6139	11.15	1
0	6140	11.15	2
0	6141	11.15	1
0	6142	11.15	0
0	6158	11.2	1
0	6159	11.2	2
0	6160	11.2	1
0	6161	11.2	0
0	6163	11.2	1
0	6164	11.2	2
0	6165	11.2	1
0	6166	11.2	0
0	6185	11.25	1
0	6186	11.25	2
0	6187	11.25	1
0	6188	11.25	0
0	6201	11.3	1
0	6202	11.3	2
0	6203	11.3	1
0	6204	11.3	0
0	6206	11.3	1
0	6207	11.3	2
0	6208	11.3	1
0	6209	11.3	0
0	6228	11.35	1
0	6229	11.35	2
0	6230	11.35	1
0	6231	11.35	0
0	6244	11.4	1
0	6245	11.4	2
0	6246	11.4	1
0	6247	11.4	0
0	6249	11.4	1
0	6250	11.4	2
0	6251	11.4	1
0	6252	11.4	0
0	6271	11.45	1
0	6272	11.45	2
0	6273	11.45	1
0	6274	11.45	0
0	6287	11.5	1
0	6288	11.5	2
0	6289	11.5	1
0	6290	11.5	0
0	6292	11.5	1
0	6293	11.5	2
0	6294	11.5	1
0	6295	11.5	0
0	6328	11.55	1
0	6329	11.55	2
0	6330	11.55	1
0	6331	11.55	0
0	6344	11.6	1
0	6345	11.6	2
0	6346	11.6	1
0	6347	11.6	0
0	6349	11.6	1
0	6350	11.6	2
0	6351	11.6	1
0	6352	11.6	0
0	6371	11.65	1
0	6372	11.65	2
0	6373	11.65	1
0	6374	11.65	0
0	6401	11.7	1
0	6402	11.7	2
0	6403	11.7	1
0	6404	11.7	0
0	6406	11.7	1
0	6407	11.7	2
0	6408	11.7	1
0	6409	11.7	0
0	6428	11.75	1
0	6429	11.75	2
0	6430	11.75	1
0	6431	11.75	0
0	6444	11.8	1
0	6445	11.8	2
0	6446	11.8	1
0	6447	11.8	0
0	6449	11.8	1
0	6450	11.8	2
0	6451	11.8	1
0	6452	11.8	0
0	6471	11.85	1
0	6472	11.85	2
0	6473	11.85	1
0	6474	11.85	0
0	6487	11.9	1
0	6488	11.9	2
0	6489	11.9	1
0	6490	11.9	0
0	6492	11.9	1
0	6493	11.9	2
0	6494	11.9	1
0	6495	11.9	0
0	6514	11.95	1
0	6515	11.95	2
0	6516	11.95	1
0	6517	11.95	0
0	6533	12	1
0	6534	12	2
0	6535	12	1
0	6536	12	0
0	6538	12	1
0	6539	12	2
0	6540	12	1
0	6541	12	0
0	6560	12.05	1
0	6561	12.05	2
0	6562	12.05	1
0	6563	12.05	0
0	6594	12.1	1
0	6595	12.1	2
0	6596	12.1	1
0	6597	12.1	0
0	6599	12.1	1
0	6600	12.1	2
0	6601	12.1	1
0	6602	12.1	0
0	6625	12.15	1
0	6626	12.15	2
0	6627	12.15	1
0	6628	12.15	0
0	6641	12.2	1
0	6642	12.2	2
0	6643	12.2	1
0	6644	12.2	0
0	6646	12.2	1
0	6647	12.2	2
0	6648	12.2	1
0	6649	12.2	0
0	6694	12.25	1
0	6695	12.25	2
0	6696	12.25	1
0	6697	12.25	0
0	6710	12.3	1
0	6711	12.3	2
0	6712	12.3	1
0	6713	12.3	0
0	6715	12.3	1
0	6716	12.3	2
0	6717	12.3	1
0	6718	12.3	0
0	6737	12.35	1
0	6738	12.35	2
0	6739	12.35	1
0	6740	12.35	0
0	6753	12.4	1
0	6754	12.4	2
0	6755	12.4	1
0	6756	12.4	0
0	6758	12.4	1
0	6759	12.4	2
0	6760	12.4	1
0	6761	12.4	0
0	6780	12.45	1
0	6781	12.45	2
0	6782	12.45	1
0	6783	12.45	0
0	6796	12.5	1
0	6797	12.5	2
0	6798	12.5	1
0	6799	12.5	0
0	6801	12.5	1
0	6802	12.5	2
0	6803	12.5	1
0	6804	12.5	0
0	6823	12.55	1
0	6824	12.55	2
0	6825	12.55	1
0	6826	12.55	0
0	6839	12.6	1
0	6840	12.6	2
0	6841	12.6	1
0	6842	12.6	0
0	6844	12.6	1
0	6845	12.6	2
0	6846	12.6	1
0	6847	12.6	0
0	6918	12.65	1
0	6919	12.65	2
0	6920	12.65	1
0	6921	12.65	0
0	6934	12.7	1
0	6935	12.7	2
0	6936	12.7	1
0	6937	12.7	0
0	6939	12.7	1
0	6940	12.7	2
0	6941	12.7	1
0	6942	12.7	0
0	6961	12.75	1
0	6962	12.75	2
0	6963	12.75	1
0	6964	12.75	0
0	7005	12.8	1
0	7006	12.8	2
0	7007	12.8	1
0	7008	12.8	0
0	7010	12.8	1
0	7011	12.8	2
0	7012	12.8	1
0	7013	12.8	0
0	7032	12.85	1
0	7033	12.85	2
0	7034	12.85	1
0	7035	12.85	0
0	7048	12.9	1
0	7049	12.9	2
0	7050	12.9	1
0	7051	12.9	0
0	7053	12.9	1
0	7054	12.9	2
0	7055	12.9	1
0	7056	12.9	0
0	7075	12.95	1
0	7076	12.95	2
0	7077	12.95	1
0	7078	12.95	0
0	7091	13	1
0	7092	13	2
0	7093	13	1
0	7094	13	0
0	7096	13	1
0	7097	13	2
0	7098	13	1
0	7099	13	0
0	7118	13.05	1
0	7119	13.05	2
0	7120	13.05	1
0	7121	13.05	0
0	7138	13.1	1
0	7139	13.1	2
0	7140	13.1	1
0	7141	13.1	0
0	7143	13.1	1
0	7144	13.1	2
0	7145	13.1	1
0	7146	13.1	0
0	7169	13.15	1
0	7170	13.15	2
0	7171	13.15	1
0	7172	13.15	0
0	7209	13.2	1
0	7210	13.2	2
0	7211	13.2	1
0	7212	13.2	0
0	7214	13.2	1
0	7215	13.2	2
0	7216	13.2	1
0	7217	13.2	0
0	7236	13.25	1
0	7237	13.25	2
0	7238	13.25	1
0	7239	13.25	0
0	7252	13.3	1
0	7253	13.3	2
0	7254	13.3	1
0	7255	13.3	0
0	7257	13.3	1
0	7258	13.3	2
0	7259	13.3	1
0	7260	13.3	0
0	7316	13.35	1
0	7317	13.35	2
0	7318	13.35	1
0	7319	13.35	0
0	7332	13.4	1
0	7333	13.4	2
0	7334	13.4	1
0	7335	13.4	0
0	7337	13.4	1
0	7338	13.4	2
0	7339	13.4	1
0	7340	13.4	0
0	7359	13.45	1
0	7360	13.45	2
0	7361	13.45	1
0	7362	13.45	0
0	7375	13.5	1
0	7376	13.5	2
0	7377	13.5	1
0	7378	13.5	0
0	7380	13.5	1
0	7381	13.5	2
0	7382	13.5	1
0	7383	13.5	0
0	7402	13.55	1
0	7403	13.55	2
0	7404	13.55	1
0	7405	13.55	0
0	7418	13.6	1
0	7419	13.6	2
0	7420	13.6	1
0	7421	13.6	0
0	7423	13.6	1
0	7424	13.6	2
0	7425	13.6	1
0	7426	13.6	0
0	7445	13.65	1
0	7446	13.65	2
0	7447	13.65	1
0	7448	13.65	0
0	7461	13.7	1
0	7462	13.7	2
0	7463	13.7	1
0	7464	13.7	0
0	7466	13.7	1
0	7467	13.7	2
0	7468	13.7	1
0	7469	13.7	0
0	7528	13.75	1
0	7529	13.75	2
0	7530	13.75	1
0	7531	13.75	0
0	7544	13.8	1
0	7545	13.8	2
0	7546	13.8	1
0	7547	13.8	0
0	7549	13.8	1
0	7550	13.8	2
0	7551	13.8	1
0	7552	13.8	0
0	7571	13.85	1
0	7572	13.85	2
0	7573	13.85	1
0	7574	13.85	0
0	7627	13.9	1
0	7628	13.9	2
0	7629	13.9	1
0	7630	13.9	0
0	7632	13.9	1
0	7633	13.9	2
0	7634	13.9	1
0	7635	13.9	0
0	7654	13.95	1
0	7655	13.95	2
0	7656	13.95	1
0	7657	13.95	0
0	7670	14	1
0	7671	14	2
0	7672	14	1
0	7673	14	0
0	7675	14	1
0	7676	14	2
0	7677	14	1
0	7678	14	0
0	7697	14.05	1
0	7698	14.05	2
0	7699	14.05	1
0	7700	14.05	0
0	7717	14.1	1
0	7718	14.1	2
0	7719	14.1	1
0	7720	14.1	0
0	7722	14.1	1
0	7723	14.1	2
0	7724	14.1	1
0	7725	14.1	0
0	7748	14.15	1
0	7749	14.15	2
0	7750	14.15	1
0	7751	14.15	0
0	7764	14.2	1
0	7765	14.2	2
0	7766	14.2	1
0	7767	14.2	0
0	7769	14.2	1
0	7770	14.2	2
0	7771	14.2	1
0	7772	14.2	0
0	7791	14.25	1
0	7792	14.25	2
0	7793	14.25	1
0	7794	14.25	0
0	7836	14.3	1
0	7837	14.3	2
0	7838	14.3	1
0	7839	14.3	0
0	7841	14.3	1
0	7842	14.3	2
0	7843	14.3	1
0	7844	14.3	0
0	7863	14.35	1
0	7864	14.35	2
0	7865	14.35	1
0	7866	14.35	0
0	7879	14.4	1
0	7880	14.4	2
0	7881	14.4	1
0	7882	14.4	0
0	7884	14.4	1
0	7885	14.4	2
0	7886	14.4	1
0	7887	14.4	0
0	7920	14.45	1
0	7921	14.45	2
0	7922	14.45	1
0	7923	14.45	0
0	7936	14.5	1
0	7937	14.5	2
0	7938	14.5	1
0	7939	14.5	0
0	7941	14.5	1
0	7942	14.5	2
0	7943	14.5	1
0	7944	14.5	0
0	7963	14.55	1
0	7964	14.55	2
0	7965	14.55	1
0	7966	14.55	0
0	7979	14.6	1
0	7980	14.6	2
0	7981	14.6	1
0	7982	14.6	0
0	7984	14.6	1
0	7985	14.6	2
0	7986	14.6	1
0	7987	14.6	0
0	8006	14.65	1
0	8007	14.65	2
0	8008	14.65	1
0	8009	14.65	0
0	8022	14.7	1
0	8023	14.7	2
0	8024	14.7	1
0	8025	14.7	0
0	8027	14.7	1
0	8028	14.7	2
0	8029	14.7	1
0	8030	14.7	0
0	8049	14.75	1
0	8050	14.75	2
0	8051	14.75	1
0	8052	14.75	0
0	8065	14.8	1
0	8066	14.8	2
0	8067	14.8	1
0	8068	14.8	0
0	8070	14.8	1
0	8071	14.8	2
0	8072	14.8	1
0	8073	14.8	0
0	8102	14.85	1
0	8103	14.85	2
0	8104	14.85	1
0	8105	14.85	0
0	8118	14.9	1
0	8119	14.9	2
0	8120	14.9	1
0	8121	14.9	0
0	8123	14.9	1
0	8124	14.9	2
0	8125	14.9	1
0	8126	14.9	0
0	8145	14.95	1
0	8146	14.95	2
0	8147	14.95	1
0	8148	14.95	0
0	8176	15	1
0	8177	15	2
0	8178	15	1
0	8179	15	0
0	8181	15	1
0	8182	15	2
0	8183	15	1
0	8184	15	0
0	8203	15.05	1
0	8204	15.05	2
0	8205	15.05	1
0	8206	15.05	0
0	8223	15.1	1
0	8224	15.1	2
0	8225	15.1	1
0	8226	15.1	0
0	8228	15.1	1
0	8229	15.1	2
0	8230	15.1	1
0	8231	15.1	0
0	8254	15.15	1
0	8255	15.15	2
0	8256	15.15	1
0	8257	15.15	0
0	8270	15.2	1
0	8271	15.2	2
0	8272	15.2	1
0	8273	15.2	0
0	8275	15.2	1
0	8276	15.2	2
0	8277	15.2	1
0	8278	15.2	0
0	8297	15.25	1
0	8298	15.25	2
0	8299	15.25	1
0	8300	15.25	0
0	8313	15.3	1
0	8314	15.3	2
0	8315	15.3	1
0	8316	15.3	0
0	8318	15.3	1
0	8319	15.3	2
0	8320	15.3	1
0	8321	15.3	0
0	8340	15.35	1
0	8341	15.35	2
0	8342	15.35	1
0	8343	15.35	0
0	8382	15.4	1
0	8383	15.4	2
0	8384	15.4	1
0	8385	15.4	0
0	8387	15.4	1
0	8388	15.4	2
0	8389	15.4	1
0	8390	15.4	0
0	8409	15.45	1
0	8410	15.45	2
0	8411	15.45	1
0	8412	15.45	0
0	8463	15.5	1
0	8464	15.5	2
0	8465	15.5	1
0	8466	15.5	0
0	8468	15.5	1
0	8469	15.5	2
0	8470	15.5	1
0	8471	15.5	0
0	8504	15.55	1
0	8505	15.55	2
0	8506	15.55	1
0	8507	15.55	0
0	8520	15.6	1
0	8521	15.6	2
0	8522	15.6	1
0	8523	15.6	0
0	8525	15.6	1
0	8526	15.6	2
0	8527	15.6	1
0	8528	15.6	0
0	8561	15.65	1
0	8562	15.65	2
0	8563	15.65	1
0	8564	15.65	0
0	8577	15.7	1
0	8578	15.7	2
0	8579	15.7	1
0	8580	15.7	0
0	8582	15.7	1
0	8583	15.7	2
0	8584	15.7	1
0	8585	15.7	0
0	8604	15.75	1
0	8605	15.75	2
0	8606	15.75	1
0	8607	15.75	0
0	8620	15.8	1
0	8621	15.8	2
0	8622	15.8	1
0	8623	15.8	0
0	8625	15.8	1
0	8626	15.8	2
0	8627	15.8	1
0	8628	15.8	0
0	8647	15.85	1
0	8648	15.85	2
0	8649	15.85	1
0	8650	15.85	0
0	8663	15.9	1
0	8664	15.9	2
0	8665	15.9	1
0	8666	15.9	0
0	8668	15.9	1
0	8669	15.9	2
0	8670	15.9	1
0	8671	15.9	0
0	8704	15.95	1
0	8705	15.95	2
0	8706	15.95	1
0	8707	15.95	0
0	8720	16	1
0	8721	16	2
0	8722	16	1
0	8723	16	0
0	8725	16	1
0	8726	16	2
0	8727	16	1
0	8728	16	0
0	8761	16.05	1
0	8762	16.05	2
0	8763	16.05	1
0	8764	16.05	0
0	8795	16.1	1
0	8796	16.1	2
0	8797	16.1	1
0	8798	16.1	0
0	8800	16.1	1
0	8801	16.1	2
0	8802	16.1	1
0	8803	16.1	0
0	8826	16.15	1
0	8827	16.15	2
0	8828	16.15	1
0	8829	16.15	0
0	8856	16.2	1
0	8857	16.2	2
0	8858	16.2	1
0	8859	16.2	0
0	8861	16.2	1
0	8862	16.2	2
0	8863	16.2	1
0	8864	16.2	0
0	8883	16.25	1
0	8884	16.25	2
0	8885	16.25	1
0	8886	16.25	0
0	8899	16.3	1
0	8900	16.3	2
0	8901	16.3	1
0	8902	16.3	0
0	8904	16.3	1
0	8905	16.3	2
0	8906	16.3	1
0	8907	16.3	0
0	8926	16.35	1
0	8927	16.35	2
0	8928	16.35	1
0	8929	16.35	0
0	8942	16.4	1
0	8943	16.4	2
0	8944	16.4	1
0	8945	16.4	0
0	8947	16.4	1
0	8948	16.4	2
0	8949	16.4	1
0	8950	16.4	0
0	8969	16.45	1
0	8970	16.45	2
0	8971	16.45	1
0	8972	16.45	0
0	9011	16.5	1
0	9012	16.5	2
0	9013	16.5	1
0	9014	16.5	0
0	9016	16.5	1
0	9017	16.5	2
0	9018	16.5	1
0	9019	16.5	0
0	9038	16.55	1
0	9039	16.55	2
0	9040	16.55	1
0	9041	16.55	0
0	9071	16.6	1
0	9072	16.6	2
0	9073	16.6	1
0	9074	16.6	0
0	9076	16.6	1
0	9077	16.6	2
0	9078	16.6	1
0	9079	16.6	0
0	9112	16.65	1
0	9113	16.65	2
0	9114	16.65	1
0	9115	16.65	0
0	9128	16.7	1
0	9129	16.7	2
0	9130	16.7	1
0	9131	16.7	0
0	9133	16.7	1
0	9134	16.7	2
0	9135	16.7	1
0	9136	16.7	0
0	9169	16.75	1
0	9170	16.75	2
0	9171	16.75	1
0	9172	16.75	0
0	9185	16.8	1
0	9186	16.8	2
0	9187	16.8	1
0	9188	16.8	0
0	9190	16.8	1
0	9191	16.8	2
0	9192	16.8	1
0	9193	16.8	0
0	9212	16.85	1
0	9213	16.85	2
0	9214	16.85	1
0	9215	16.85	0
0	9228	16.9	1
0	9229	16.9	2
0	9230	16.9	1
0	9231	16.9	0
0	9233	16.9	1
0	9234	16.9	2
0	9235	16.9	1
0	9236	16.9	0
0	9255	16.95	1
0	9256	16.95	2
0	9257	16.95	1
0	9258	16.95	0
0	9274	17	1
0	9275	17	2
0	9276	17	1
0	9277	17	0
0	9279	17	1
0	9280	17	2
0	9281	17	1
0	9282	17	0
0	9315	17.05	1
0	9316	17.05	2
0	9317	17.05	1
0	9318	17.05	0
0	9335	17.1	1
0	9336	17.1	2
0	9337	17.1	1
0	9338	17.1	0
0	9340	17.1	1
0	9341	17.1	2
0	9342	17.1	1
0	9343	17.1	0
0	9404	17.15	1
0	9405	17.15	2
0	9406	17.15	1
0	9407	17.15	0
0	9423	17.2	1
0	9424	17.2	2
0	9425	17.2	1
0	9426	17.2	0
0	9428	17.2	1
0	9429	17.2	2
0	9430	17.2	1
0	9431	17.2	0
0	9450	17.25	1
0	9451	17.25	2
0	9452	17.25	1
0	9453	17.25	0
0	9476	17.3	1
0	9477	17.3	2
0	9478	17.3	1
0	9479	17.3	0
0	9481	17.3	1
0	9482	17.3	2
0	9483	17.3	1
0	9484	17.3	0
0	9503	17.35	1
0	9504	17.35	2
0	9505	17.35	1
0	9506	17.35	0
0	9519	17.4	1
0	9520	17.4	2
0	9521	17.4	1
0	9522	17.4	0
0	9524	17.4	1
0	9525	17.4	2
0	9526	17.4	1
0	9527	17.4	0
0	9546	17.45	1
0	9547	17.45	2
0	9548	17.45	1
0	9549	17.45	0
0	9562	17.5	1
0	9563	17.5	2
0	9564	17.5	1
0	9565	17.5	0
0	9567	17.5	1
0	9568	17.5	2
0	9569	17.5	1
0	9570	17.5	0
0	9589	17.55	1
0	9590	17.55	2
0	9591	17.55	1
0	9592	17.55	0
0	9605	17.6	1
0	9606	17.6	2
0	9607	17.6	1
0	9608	17.6	0
0	9610	17.6	1
0	9611	17.6	2
0	9612	17.6	1
0	9613	17.6	0
0	9632	17.65	1
0	9633	17.65	2
0	9634	17.65	1
0	9635	17.65	0
0	9651	17.7	1
0	9652	17.7	2
0	9653	17.7	1
0	9654	17.7	0
0	9656	17.7	1
0	9657	17.7	2
0	9658	17.7	1
0	9659	17.7	0
0	9678	17.75	1
0	9679	17.75	2
0	9680	17.75	1
0	9681	17.75	0
0	9694	17.8	1
0	9695	17.8	2
0	9696	17.8	1
0	9697	17.8	0
0	9699	17.8	1
0	9700	17.8	2
0	9701	17.8	1
0	9702	17.8	0
0	9721	17.85	1
0	9722	17.85	2
0	9723	17.85	1
0	9724	17.85	0
0	9737	17.9	1
0	9738	17.9	2
0	9739	17.9	1
0	9740	17.9	0
0	9742	17.9	1
0	9743	17.9	2
0	9744	17.9	1
0	9745	17.9	0
0	9764	17.95	1
0	9765	17.95	2
0	9766	17.95	1
0	9767	17.95	0
0	9780	18	1
0	9781	18	2
0	9782	18	1
0	9783	18	0
0	9785	18	1
0	9786	18	2
0	9787	18	1
0	9788	18	0
0	9807	18.05	1
0	9808	18.05	2
0	9809	18.05	1
0	9810	18.05	0
0	9827	18.1	1
0	9828	18.1	2
0	9829	18.1	1
0	9830	18.1	0
0	9832	18.1	1
0	9833	18.1	2
0	9834	18.1	1
0	9835	18.1	0
0	9858	18.15	1
0	9859	18.15	2
0	9860	18.15	1
0	9861	18.15	0
0	9874	18.2	1
0	9875	18.2	2
0	9876	18.2	1
0	9877	18.2	0
0	9879	18.2	1
0	9880	18.2	2
0	9881	18.2	1
0	9882	18.2	0
0	9901	18.25	1
0	9902	18.25	2
0	9903	18.25	1
0	9904	18.25	0
0	9917	18.3	1
0	9918	18.3	2
0	9919	18.3	1
0	9920	18.3	0
0	9922	18.3	1
0	9923	18.3	2
0	9924	18.3	1
0	9925	18.3	0
0	9944	18.35	1
0	9945	18.35	2
0	9946	18.35	1
0	9947	18.35	0
0	9960	18.4	1
0	9961	18.4	2
0	9962	18.4	1
0	9963	18.4	0
0	9965	18.4	1
0	9966	18.4	2
0	9967	18.4	1
0	9968	18.4	0
0	9987	18.45	1
0	9988	18.45	2
0	9989	18.45	1
0	9990	18.45	0
0	10003	18.5	1
0	10004	18.5	2
0	10005	18.5	1
0	10006	18.5	0
0	10008	18.5	1
0	10009	18.5	2
0	10010	18.5	1
0	10011	18.5	0
0	10030	18.55	1
0	10031	18.55	2
0	10032	18.55	1
0	10033	18.55	0
0	10046	18.6	1
0	10047	18.6	2
0	10048	18.6	1
0	10049	18.6	0
0	10051	18.6	1
0	10052	18.6	2
0	10053	18.6	1
0	10054	18.6	0
0	10083	18.65	1
0	10084	18.65	2
0	10085	18.65	1
0	10086	18.65	0
0	10099	18.7	1
0	10100	18.7	2
0	10101	18.7	1
0	10102	18.7	0
0	10104	18.7	1
0	10105	18.7	2
0	10106	18.7	1
0	10107	18.7	0
0	10126	18.75	1
0	10127	18.75	2
0	10128	18.75	1
0	10129	18.75	0
0	10152	18.8	1
0	10153	18.8	2
0	10154	18.8	1
0	10155	18.8	0
0	10157	18.8	1
0	10158	18.8	2
0	10159	18.8	1
0	10160	18.8	0
0	10179	18.85	1
0	10180	18.85	2
0	10181	18.85	1
0	10182	18.85	0
0	10205	18.9	1
0	10206	18.9	2
0	10207	18.9	1
0	10208	18.9	0
0	10210	18.9	1
0	10211	18.9	2
0	10212	18.9	1
0	10213	18.9	0
0	10232	18.95	1
0	10233	18.95	2
0	10234	18.95	1
0	10235	18.95	0
0	10248	19	1
0	10249	19	2
0	10250	19	1
0	10251	19	0
0	10253	19	1
0	10254	19	2
0	10255	19	1
0	10256	19	0
0	10301	19.05	1
0	10302	19.05	2
0	10303	19.05	1
0	10304	19.05	0
0	10321	19.1	1
0	10322	19.1	2
0	10323	19.1	1
0	10324	19.1	0
0	10326	19.1	1
0	10327	19.1	2
0	10328	19.1	1
0	10329	19.1	0
0	10352	19.15	1
0	10353	19.15	2
0	10354	19.15	1
0	10355	19.15	0
0	10371	19.2	1
0	10372	19.2	2
0	10373	19.2	1
0	10374	19.2	0
0	10376	19.2	1
0	10377	19.2	2
0	10378	19.2	1
0	10379	19.2	0
0	10398	19.25	1
0	10399	19.25	2
0	10400	19.25	1
0	10401	19.25	0
0	10414	19.3	1
0	10415	19.3	2
0	10416	19.3	1
0	10417	19.3	0
0	10419	19.3	1
0	10420	19.3	2
0	10421	19.3	1
0	10422	19.3	0
0	10441	19.35	1
0	10442	19.35	2
0	10443	19.35	1
0	10444	19.35	0
0	10457	19.4	1
0	10458	19.4	2
0	10459	19.4	1
0	10460	19.4	0
0	10462	19.4	1
0	10463	19.4	2
0	10464	19.4	1
0	10465	19.4	0
0	10498	19.45	1
0	10499	19.45	2
0	10500	19.45	1
0	10501	19.45	0
0	10514	19.5	1
0	10515	19.5	2
0	10516	19.5	1
0	10517	19.5	0
0	10519	19.5	1
0	10520	19.5	2
0	10521	19.5	1
0	10522	19.5	0
0	10541	19.55	1
0	10542	19.55	2
0	10543	19.55	1
0	10544	19.55	0
0	10583	19.6	1
0	10584	19.6	2
0	10585	19.6	1
0	10586	19.6	0
0	10588	19.6	1
0	10589	19.6	2
0	10590	19.6	1
0	10591	19.6	0
0	10610	19.65	1
0	10611	19.65	2
0	10612	19.65	1
0	10613	19.65	0
0	10626	19.7	1
0	10627	19.7	2
0	10628	19.7	1
0	10629	19.7	0
0	10631	19.7	1
0	10632	19.7	2
0	10633	19.7	1
0	10634	19.7	0
0	10653	19.75	1
0	10654	19.75	2
0	10655	19.75	1
0	10656	19.75	0
0	10669	19.8	1
0	10670	19.8	2
0	10671	19.8	1
0	10672	19.8	0
0	10674	19.8	1
0	10675	19.8	2
0	10676	19.8	1
0	10677	19.8	0
0	10696	19.85	1
0	10697	19.85	2
0	10698	19.85	1
0	10699	19.85	0
0	10712	19.9	1
0	10713	19.9	2
0	10714	19.9	1
0	10715	19.9	0
0	10717	19.9	1
0	10718	19.9	2
0	10719	19.9	1
0	10720	19.9	0
0	10739	19.95	1
0	10740	19.95	2
0	10741	19.95	1
0	10742	19.95	0
0	10770	20	1
0	10771	20	2
0	10772	20	1
0	10773	20	0
0	10775	20	1
0	10776	20	2
0	10777	20	1
0	10778	20	0
0	10797	20.05	1
0	10798	20.05	2
0	10799	20.05	1
0	10800	20.05	0
0	10817	20.1	1
0	10818	20.1	2
0	10819	20.1	1
0	10820	20.1	0
0	10822	20.1	1
0	10823	20.1	2
0	10824	20.1	1
0	10825	20.1	0
0	10874	20.15	1
0	10875	20.15	2
0	10876	20.15	1
0	10877	20.15	0
0	10890	20.2	1
0	10891	20.2	2
0	10892	20.2	1
0	10893	20.2	0
0	10895	20.2	1
0	10896	20.2	2
0	10897	20.2	1
0	10898	20.2	0
0	10917	20.25	1
0	10918	20.25	2
0	10919	20.25	1
0	10920	20.25	0
0	10933	20.3	1
0	10934	20.3	2
0	10935	20.3	1
0	10936	20.3	0
0	10938	20.3	1
0	10939	20.3	2
0	10940	20.3	1
0	10941	20.3	0
0	10960	20.35	1
0	10961	20.35	2
0	10962	20.35	1
0	10963	20.35	0
0	10979	20.4	1
0	10980	20.4	2
0	10981	20.4	1
0	10982	20.4	0
0	10984	20.4	1
0	10985	20.4	2
0	10986	20.4	1
0	10987	20.4	0
0	11006	20.45	1
0	11007	20.45	2
0	11008	20.45	1
0	11009	20.45	0
0	11022	20.5	1
0	11023	20.5	2
0	11024	20.5	1
0	11025	20.5	0
0	11027	20.5	1
0	11028	20.5	2
0	11029	20.5	1
0	11030	20.5	0
0	11063	20.55	1
0	11064	20.55	2
0	11065	20.55	1
0	11066	20.55	0
0	11079	20.6	1
0	11080	20.6	2
0	11081	20.6	1
0	11082	20.6	0
0	11084	20.6	1
0	11085	20.6	2
0	11086	20.6	1
0	11087	20.6	0
0	11106	20.65	1
0	11107	20.65	2
0	11108	20.65	1
0	11109	20.65	0
0	11136	20.7	1
0	11137	20.7	2
0	11138	20.7	1
0	11139	20.7	0
0	11141	20.7	1
0	11142	20.7	2
0	11143	20.7	1
0	11144	20.7	0
0	11163	20.75	1
0	11164	20.75	2
0	11165	20.75	1
0	11166	20.75	0
0	11182	20.8	1
0	11183	20.8	2
0	11184	20.8	1
0	11185	20.8	0
0	11187	20.8	1
0	11188	20.8	2
0	11189	20.8	1
0	11190	20.8	0
0	11209	20.85	1
0	11210	20.85	2
0	11211	20.85	1
0	11212	20.85	0
0	11225	20.9	1
0	11226	20.9	2
0	11227	20.9	1
0	11228	20.9	0
0	11230	20.9	1
0	11231	20.9	2
0	11232	20.9	1
0	11233	20.9	0
0	11252	20.95	1
0	11253	20.95	2
0	11254	20.95	1
0	11255	20.95	0
0	11268	21	1
0	11269	21	2
0	11270	21	1
0	11271	21	0
0	11273	21	1
0	11274	21	2
0	11275	21	1
0	11276	21	0
0	11295	21.05	1
0	11296	21.05	2
0	11297	21.05	1
0	11298	21.05	0
0	11329	21.1	1
0	11330	21.1	2
0	11331	21.1	1
0	11332	21.1	0
0	11334	21.1	1
0	11335	21.1	2
0	11336	21.1	1
0	11337	21.1	0
0	11360	21.15	1
0	11361	21.15	2
0	11362	21.15	1
0	11363	21.15	0
0	11376	21.2	1
0	11377	21.2	2
0	11378	21.2	1
0	11379	21.2	0
0	11381	21.2	1
0	11382	21.2	2
0	11383	21.2	1
0	11384	21.2	0
0	11429	21.25	1
0	11430	21.25	2
0	11431	21.25	1
0	11432	21.25	0
0	11445	21.3	1
0	11446	21.3	2
0	11447	21.3	1
0	11448	21.3	0
0	11450	21.3	1
0	11451	21.3	2
0	11452	21.3	1
0	11453	21.3	0
0	11472	21.35	1
0	11473	21.35	2
0	11474	21.35	1
0	11475	21.35	0
0	11488	21.4	1
0	11489	21.4	2
0	11490	21.4	1
0	11491	21.4	0
0	11493	21.4	1
0	11494	21.4	2
0	11495	21.4	1
0	11496	21.4	0
0	11515	21.45	1
0	11516	21.45	2
0	11517	21.45	1
0	11518	21.45	0
0	11531	21.5	1
0	11532	21.5	2
0	11533	21.5	1
0	11534	21.5	0
0	11536	21.5	1
0	11537	21.5	2
0	11538	21.5	1
0	11539	21.5	0
0	11558	21.55	1
0	11559	21.55	2
0	11560	21.55	1
0	11561	21.55	0
0	11574	21.6	1
0	11575	21.6	1
0	11576	21.6	0
0	11577	21.6	0
0	11579	21.6	1
0	11580	21.6	1
0	11581	21.6	0
0	11582	21.6	0
0	11613	21.65	1
0	11614	21.65	1
0	11615	21.65	0
0	11616	21.65	0
0	11629	21.7	1
0	11630	21.7	1
0	11631	21.7	0
0	11632	21.7	0
0	11634	21.7	1
0	11635	21.7	1
0	11636	21.7	0
0	11637	21.7	0
0	11654	21.75	1
0	11655	21.75	1
0	11656	21.75	0
0	11657	21.75	0
0	11673	21.8	1
0	11674	21.8	1
0	11675	21.8	0
0	11676	21.8	0
0	11678	21.8	1
0	11679	21.8	1
0	11680	21.8	0
0	11681	21.8	0
0	11698	21.85	1
0	11699	21.85	1
0	11700	21.85	0
0	11701	21.85	0
0	11714	21.9	1
0	11715	21.9	1
0	11716	21.9	0
0	11717	21.9	0
0	11719	21.9	1
0	11720	21.9	1
0	11721	21.9	0
0	11722	21.9	0
0	11739	21.95	1
0	11740	21.95	1
0	11741	21.95	0
0	11742	21.95	0
0	11758	22	1
0	11759	22	1
0	11760	22	0
0	11761	22	0
0	11763	22	1
0	11764	22	1
0	11765	22	0
0	11766	22	0
0	11783	22.05	1
0	11784	22.05	1
0	11785	22.05	0
0	11786	22.05	0
0	11803	22.1	1
0	11804	22.1	1
0	11805	22.1	0
0	11806	22.1	0
0	11808	22.1	1
0	11809	22.1	1
0	11810	22.1	0
0	11811	22.1	0
0	11832	22.15	1
0	11833	22.15	1
0	11834	22.15	0
0	11835	22.15	0
0	11848	22.2	1
0	11849	22.2	1
0	11850	22.2	0
0	11851	22.2	0
0	11853	22.2	1
0	11854	22.2	1
0	11855	22.2	0
0	11856	22.2	0
0	11873	22.25	1
0	11874	22.25	1
0	11875	22.25	0
0	11876	22.25	0
0	11889	22.3	1
0	11890	22.3	1
0	11891	22.3	0
0	11892	22.3	0
0	11894	22.3	1
0	11895	22.3	1
0	11896	22.3	0
0	11897	22.3	0
0	11914	22.35	1
0	11915	22.35	1
0	11916	22.35	0
0	11917	22.35	0
0	11930	22.4	1
0	11931	22.4	1
0	11932	22.4	0
0	11933	22.4	0
0	11935	22.4	1
0	11936	22.4	1
0	11937	22.4	0
0	11938	22.4	0
0	11955	22.45	1
0	11956	22.45	1
0	11957	22.45	0
0	11958	22.45	0
0	11971	22.5	1
0	11972	22.5	1
0	11973	22.5	0
0	11974	22.5	0
0	11976	22.5	1
0	11977	22.5	1
0	11978	22.5	0
0	11979	22.5	0
0	11996	22.55	1
0	11997	22.55	1
0	11998	22.55	0
0	11999	22.55	0
0	12012	22.6	1
0	12013	22.6	1
0	12014	22.6	0
0	12015	22.6	0
0	12017	22.6	1
0	12018	22.6	1
0	12019	22.6	0
0	12020	22.6	0
0	12037	22.65	1
0	12038	22.65	1
0	12039	22.65	0
0	12040	22.65	0
0	12053	22.7	1
0	12054	22.7	1
0	12055	22.7	0
0	12056	22.7	0
0	12058	22.7	1
0	12059	22.7	1
0	12060	22.7	0
0	12061	22.7	0
0	12078	22.75	1
0	12079	22.75	1
0	12080	22.75	0
0	12081	22.75	0
0	12094	22.8	1
0	12095	22.8	1
0	12096	22.8	0
0	12097	22.8	0
0	12099	22.8	1
0	12100	22.8	1
0	12101	22.8	0
0	12102	22.8	0
0	12119	22.85	1
0	12120	22.85	1
0	12121	22.85	0
0	12122	22.85	0
0	12135	22.9	1
0	12136	22.9	1
0	12137	22.9	0
0	12138	22.9	0
0	12140	22.9	1
0	12141	22.9	1
0	12142	22.9	0
0	12143	22.9	0
0	12160	22.95	1
0	12161	22.95	1
0	12162	22.95	0
0	12163	22.95	0
0	12176	23	1
0	12177	23	1
0	12178	23	0
0	12179	23	0
0	12181	23	1
0	12182	23	1
0	12183	23	0
0	12184	23	0
0	12201	23.05	1
0	12202	23.05	1
0	12203	23.05	0
0	12204	23.05	0
0	12221	23.1	1
0	12222	23.1	1
0	12223	23.1	0
0	12224	23.1	0
0	12226	23.1	1
0	12227	23.1	1
0	12228	23.1	0
0	12229	23.1	0
0	12250	23.15	1
0	12251	23.15	1
0	12252	23.15	0
0	12253	23.15	0
0	12266	23.2	1
0	12267	23.2	1
0	12268	23.2	0
0	12269	23.2	0
0	12271	23.2	1
0	12272	23.2	1
0	12273	23.2	0
0	12274	23.2	0
0	12329	23.25	1
0	12330	23.25	1
0	12331	23.25	0
0	12332	23.25	0
0	12345	23.3	1
0	12346	23.3	1
0	12347	23.3	0
0	12348	23.3	0
0	12350	23.3	1
0	12351	23.3	1
0	12352	23.3	0
0	12353	23.3	0
0	12370	23.35	1
0	12371	23.35	1
0	12372	23.35	0
0	12373	23.35	0
0	12400	23.4	1
0	12401	23.4	1
0	12402	23.4	0
0	12403	23.4	0
0	12405	23.4	1
0	12406	23.4	1
0	12407	23.4	0
0	12408	23.4	0
0	12425	23.45	1
0	12426	23.45	1
0	12427	23.45	0
0	12428	23.45	0
0	12441	23.5	1
0	12442	23.5	1
0	12443	23.5	0
0	12444	23.5	0
0	12446	23.5	1
0	12447	23.5	1
0	12448	23.5	0
0	12449	23.5	0
0	12466	23.55	1
0	12467	23.55	1
0	12468	23.55	0
0	12469	23.55	0
0	12482	23.6	1
0	12483	23.6	1
0	12484	23.6	0
0	12485	23.6	0
0	12487	23.6	1
0	12488	23.6	1
0	12489	23.6	0
0	12490	23.6	0
0	12507	23.65	1
0	12508	23.65	1
0	12509	23.65	0
0	12510	23.65	0
0	12523	23.7	1
0	12524	23.7	1
0	12525	23.7	0
0	12526	23.7	0
0	12528	23.7	1
0	12529	23.7	1
0	12530	23.7	0
0	12531	23.7	0
0	12548	23.75	1
0	12549	23.75	1
0	12550	23.75	0
0	12551	23.75	0
0	12578	23.8	1
0	12579	23.8	1
0	12580	23.8	0
0	12581	23.8	0
0	12583	23.8	1
0	12584	23.8	1
0	12585	23.8	0
0	12586	23.8	0
0	12603	23.85	1
0	12604	23.85	1
0	12605	23.85	0
0	12606	23.85	0
0	12619	23.9	1
0	12620	23.9	1
0	12621	23.9	0
0	12622	23.9	0
0	12624	23.9	1
0	12625	23.9	1
0	12626	23.9	0
0	12627	23.9	0
0	12658	23.95	1
0	12659	23.95	1
0	12660	23.95	0
0	12661	23.95	0
0	12674	24	1
0	12675	24	1
0	12676	24	0
0	12677	24	0
0	12679	24	1
0	12680	24	1
0	12681	24	0
0	12682	24	0
0	12699	24.05	1
0	12700	24.05	1
0	12701	24.05	0
0	12702	24.05	0
0	12719	24.1	1
0	12720	24.1	1
0	12721	24.1	0
0	12722	24.1	0
0	12724	24.1	1
0	12725	24.1	1
0	12726	24.1	0
0	12727	24.1	0
0	12748	24.15	1
0	12749	24.15	1
0	12750	24.15	0
0	12751	24.15	0
0	12764	24.2	1
0	12765	24.2	1
0	12766	24.2	0
0	12767	24.2	0
0	12769	24.2	1
0	12770	24.2	1
0	12771	24.2	0
0	12772	24.2	0
0	12789	24.25	1
0	12790	24.25	1
0	12791	24.25	0
0	12792	24.25	0
0	12805	24.3	1
0	12806	24.3	1
0	12807	24.3	0
0	12808	24.3	0
0	12810	24.3	1
0	12811	24.3	1
0	12812	24.3	0
0	12813	24.3	0
0	12856	24.35	1
0	12857	24.35	1
0	12858	24.35	0
0	12859	24.35	0
0	12872	24.4	1
0	12873	24.4	1
0	12874	24.4	0
0	12875	24.4	0
0	12877	24.4	1
0	12878	24.4	1
0	12879	24.4	0
0	12880	24.4	0
0	12897	24.45	1
0	12898	24.45	1
0	12899	24.45	0
0	12900	24.45	0
0	12916	24.5	1
0	12917	24.5	1
0	12918	24.5	0
0	12919	24.5	0
0	12921	24.5	1
0	12922	24.5	1
0	12923	24.5	0
0	12924	24.5	0
0	12941	24.55	1
0	12942	24.55	1
0	12943	24.55	0
0	12944	24.55	0
0	12957	24.6	1
0	12958	24.6	1
0	12959	24.6	0
0	12960	24.6	0
0	12962	24.6	1
0	12963	24.6	1
0	12964	24.6	0
0	12965	24.6	0
0	12982	24.65	1
0	12983	24.65	1
0	12984	24.65	0
0	12985	24.65	0
0	12998	24.7	1
0	12999	24.7	1
0	13000	24.7	0
0	13001	24.7	0
0	13003	24.7	1
0	13004	24.7	1
0	13005	24.7	0
0	13006	24.7	0
0	13023	24.75	1
0	13024	24.75	1
0	13025	24.75	0
0	13026	24.75	0
0	13039	24.8	1
0	13040	24.8	1
0	13041	24.8	0
0	13042	24.8	0
0	13044	24.8	1
0	13045	24.8	1
0	13046	24.8	0
0	13047	24.8	0
0	13064	24.85	1
0	13065	24.85	1
0	13066	24.85	0
0	13067	24.85	0
0	13080	24.9	1
0	13081	24.9	1
0	13082	24.9	0
0	13083	24.9	0
0	13085	24.9	1
0	13086	24.9	1
0	13087	24.9	0
0	13088	24.9	0
0	13105	24.95	1
0	13106	24.95	1
0	13107	24.95	0
0	13108	24.95	0
0	13122	25	1
0	13123	25	1
0	13124	25	0
0	13125	25	0
0	13127	25	1
0	13128	25	1
0	13129	25	0
0	13130	25	0
0	13147	25.05	1
0	13148	25.05	1
0	13149	25.05	0
0	13150	25.05	0
0	13167	25.1	1
0	13168	25.1	1
0	13169	25.1	0
0	13170	25.1	0
0	13172	25.1	1
0	13173	25.1	1
0	13174	25.1	0
0	13175	25.1	0
0	13196	25.15	1
0	13197	25.15	1
0	13198	25.15	0
0	13199	25.15	0
0	13212	25.2	1
0	13213	25.2	1
0	13214	25.2	0
0	13215	25.2	0
0	13217	25.2	1
0	13218	25.2	1
0	13219	25.2	0
0	13220	25.2	0
0	13237	25.25	1
0	13238	25.25	1
0	13239	25.25	0
0	13240	25.25	0
0	13253	25.3	1
0	13254	25.3	1
0	13255	25.3	0
0	13256	25.3	0
0	13258	25.3	1
0	13259	25.3	1
0	13260	25.3	0
0	13261	25.3	0
0	13278	25.35	1
0	13279	25.35	1
0	13280	25.35	0
0	13281	25.35	0
0	13294	25.4	1
0	13295	25.4	1
0	13296	25.4	0
0	13297	25.4	0
0	13299	25.4	1
0	13300	25.4	1
0	13301	25.4	0
0	13302	25.4	0
0	13319	25.45	1
0	13320	25.45	1
0	13321	25.45	0
0	13322	25.45	0
0	13335	25.5	1
0	13336	25.5	1
0	13337	25.5	0
0	13338	25.5	0
0	13340	25.5	1
0	13341	25.5	1
0	13342	25.5	0
0	13343	25.5	0
0	13360	25.55	1
0	13361	25.55	1
0	13362	25.55	0
0	13363	25.55	0
0	13376	25.6	1
0	13377	25.6	1
0	13378	25.6	0
0	13379	25.6	0
0	13381	25.6	1
0	13382	25.6	1
0	13383	25.6	0
0	13384	25.6	0
0	13401	25.65	1
0	13402	25.65	1
0	13403	25.65	0
0	13404	25.65	0
0	13417	25.7	1
0	13418	25.7	1
0	13419	25.7	0
0	13420	25.7	0
0	13422	25.7	1
0	13423	25.7	1
0	13424	25.7	0
0	13425	25.7	0
0	13442	25.75	1
0	13443	25.75	1
0	13444	25.75	0
0	13445	25.75	0
0	13458	25.8	1
0	13459	25.8	1
0	13460	25.8	0
0	13461	25.8	0
0	13463	25.8	1
0	13464	25.8	1
0	13465	25.8	0
0	13466	25.8	0
0	13483	25.85	1
0	13484	25.85	1
0	13485	25.85	0
0	13486	25.85	0
0	13499	25.9	1
0	13500	25.9	1
0	13501	25.9	0
0	13502	25.9	0
0	13504	25.9	1
0	13505	25.9	1
0	13506	25.9	0
0	13507	25.9	0
0	13550	25.95	1
0	13551	25.95	1
0	13552	25.95	0
0	13553	25.95	0
0	13566	26	1
0	13567	26	1
0	13568	26	0
0	13569	26	0
0	13571	26	1
0	13572	26	1
0	13573	26	0
0	13574	26	0
0	13591	26.05	1
0	13592	26.05	1
0	13593	26.05	0
0	13594	26.05	0
0	13625	26.1	1
0	13626	26.1	1
0	13627	26.1	0
0	13628	26.1	0
0	13630	26.1	1
0	13631	26.1	1
0	13632	26.1	0
0	13633	26.1	0
0	13654	26.15	1
0	13655	26.15	1
0	13656	26.15	0
0	13657	26.15	0
0	13670	26.2	1
0	13671	26.2	1
0	13672	26.2	0
0	13673	26.2	0
0	13675	26.2	1
0	13676	26.2	1
0	13677	26.2	0
0	13678	26.2	0
0	13695	26.25	1
0	13696	26.25	1
0	13697	26.25	0
0	13698	26.25	0
0	13711	26.3	1
0	13712	26.3	1
0	13713	26.3	0
0	13714	26.3	0
0	13716	26.3	1
0	13717	26.3	1
0	13718	26.3	0
0	13719	26.3	0
0	13736	26.35	1
0	13737	26.35	1
0	13738	26.35	0
0	13739	26.35	0
0	13752	26.4	1
0	13753	26.4	1
0	13754	26.4	0
0	13755	26.4	0
0	13757	26.4	1
0	13758	26.4	1
0	13759	26.4	0
0	13760	26.4	0
0	13777	26.45	1
0	13778	26.45	1
0	13779	26.45	0
0	13780	26.45	0
0	13819	26.5	1
0	13820	26.5	1
0	13821	26.5	0
0	13822	26.5	0
0	13824	26.5	1
0	13825	26.5	1
0	13826	26.5	0
0	13827	26.5	0
0	13844	26.55	1
0	13845	26.55	1
0	13846	26.55	0
0	13847	26.55	0
0	13860	26.6	1
0	13861	26.6	1
0	13862	26.6	0
0	13863	26.6	0
0	13865	26.6	1
0	13866	26.6	1
0	13867	26.6	0
0	13868	26.6	0
0	13888	26.65	1
0	13889	26.65	1
0	13890	26.65	0
0	13891	26.65	0
0	13904	26.7	1
0	13905	26.7	1
0	13906	26.7	0
0	13907	26.7	0
0	13909	26.7	1
0	13910	26.7	1
0	13911	26.7	0
0	13912	26.7	0
0	13929	26.75	1
0	13930	26.75	1
0	13931	26.75	0
0	13932	26.75	0
0	13945	26.8	1
0	13946	26.8	1
0	13947	26.8	0
0	13948	26.8	0
0	13950	26.8	1
0	13951	26.8	1
0	13952	26.8	0
0	13953	26.8	0
0	13970	26.85	1
0	13971	26.85	1
0	13972	26.85	0
0	13973	26.85	0
0	13986	26.9	1
0	13987	26.9	1
0	13988	26.9	0
0	13989	26.9	0
0	13991	26.9	1
0	13992	26.9	1
0	13993	26.9	0
0	13994	26.9	0
0	14011	26.95	1
0	14012	26.95	1
0	14013	26.95	0
0	14014	26.95	0
0	14030	27	1
0	14031	27	1
0	14032	27	0
0	14033	27	0
0	14035	27	1
0	14036	27	1
0	14037	27	0
0	14038	27	0
0	14055	27.05	1
0	14056	27.05	1
0	14057	27.05	0
0	14058	27.05	0
0	14075	27.1	1
0	14076	27.1	1
0	14077	27.1	0
0	14078	27.1	0
0	14080	27.1	1
0	14081	27.1	1
0	14082	27.1	0
0	14083	27.1	0
0	14104	27.15	1
0	14105	27.15	1
0	14106	27.15	0
0	14107	27.15	0
0	14120	27.2	1
0	14121	27.2	1
0	14122	27.2	0
0	14123	27.2	0
0	14125	27.2	1
0	14126	27.2	1
0	14127	27.2	0
0	14128	27.2	0
0	14145	27.25	1
0	14146	27.25	1
0	14147	27.25	0
0	14148	27.25	0
0	14161	27.3	1
0	14162	27.3	1
0	14163	27.3	0
0	14164	27.3	0
0	14166	27.3	1
0	14167	27.3	1
0	14168	27.3	0
0	14169	27.3	0
0	14186	27.35	1
0	14187	27.35	1
0	14188	27.35	0
0	14189	27.35	0
0	14202	27.4	1
0	14203	27.4	1
0	14204	27.4	0
0	14205	27.4	0
0	14207	27.4	1
0	14208	27.4	1
0	14209	27.4	0
0	14210	27.4	0
0	14227	27.45	1
0	14228	27.45	1
0	14229	27.45	0
0	14230	27.45	0
0	14243	27.5	1
0	14244	27.5	1
0	14245	27.5	0
0	14246	27.5	0
0	14248	27.5	1
0	14249	27.5	1
0	14250	27.5	0
0	14251	27.5	0
0	14268	27.55	1
0	14269	27.55	1
0	14270	27.55	0
0	14271	27.55	0
0	14284	27.6	1
0	14285	27.6	1
0	14286	27.6	0
0	14287	27.6	0
0	14289	27.6	1
0	14290	27.6	1
0	14291	27.6	0
0	14292	27.6	0
0	14309	27.65	1
0	14310	27.65	1
0	14311	27.65	0
0	14312	27.65	0
0	14325	27.7	1
0	14326	27.7	1
0	14327	27.7	0
0	14328	27.7	0
0	14330	27.7	1
0	14331	27.7	1
0	14332	27.7	0
0	14333	27.7	0
0	14350	27.75	1
0	14351	27.75	1
0	14352	27.75	0
0	14353	27.75	0
0	14366	27.8	1
0	14367	27.8	1
0	14368	27.8	0
0	14369	27.8	0
0	14371	27.8	1
0	14372	27.8	1
0	14373	27.8	0
0	14374	27.8	0
0	14391	27.85	1
0	14392	27.85	1
0	14393	27.85	0
0	14394	27.85	0
0	14407	27.9	1
0	14408	27.9	1
0	14409	27.9	0
0	14410	27.9	0
0	14412	27.9	1
0	14413	27.9	1
0	14414	27.9	0
0	14415	27.9	0
0	14432	27.95	1
0	14433	27.95	1
0	14434	27.95	0
0	14435	27.95	0
0	14448	28	1
0	14449	28	1
0	14450	28	0
0	14451	28	0
0	14453	28	1
0	14454	28	1
0	14455	28	0
0	14456	28	0
0	14473	28.05	1
0	14474	28.05	1
0	14475	28.05	0
0	14476	28.05	0
0	14510	28.1	1
0	14511	28.1	1
0	14512	28.1	0
0	14513	28.1	0
0	14515	28.1	1
0	14516	28.1	1
0	14517	28.1	0
0	14518	28.1	0
0	14539	28.15	1
0	14540	28.15	1
0	14541	28.15	0
0	14542	28.15	0
0	14555	28.2	1
0	14556	28.2	1
0	14557	28.2	0
0	14558	28.2	0
0	14560	28.2	1
0	14561	28.2	1
0	14562	28.2	0
0	14563	28.2	0
0	14590	28.25	1
0	14591	28.25	1
0	14592	28.25	0
0	14593	28.25	0
0	14606	28.3	1
0	14607	28.3	1
0	14608	28.3	0
0	14609	28.3	0
0	14611	28.3	1
0	14612	28.3	1
0	14613	28.3	0
0	14614	28.3	0
0	14631	28.35	1
0	14632	28.35	1
0	14633	28.35	0
0	14634	28.35	0
0	14647	28.4	1
0	14648	28.4	1
0	14649	28.4	0
0	14650	28.4	0
0	14652	28.4	1
0	14653	28.4	1
0	14654	28.4	0
0	14655	28.4	0
0	14672	28.45	1
0	14673	28.45	1
0	14674	28.45	0
0	14675	28.45	0
0	14688	28.5	1
0	14689	28.5	1
0	14690	28.5	0
0	14691	28.5	0
0	14693	28.5	1
0	14694	28.5	1
0	14695	28.5	0
0	14696	28.5	0
0	14713	28.55	1
0	14714	28.55	1
0	14715	28.55	0
0	14716	28.55	0
0	14729	28.6	1
0	14730	28.6	1
0	14731	28.6	0
0	14732	28.6	0
0	14734	28.6	1
0	14735	28.6	1
0	14736	28.6	0
0	14737	28.6	0
0	14792	28.65	1
0	14793	28.65	1
0	14794	28.65	0
0	14795	28.65	0
0	14808	28.7	1
0	14809	28.7	1
0	14810	28.7	0
0	14811	28.7	0
0	14813	28.7	1
0	14814	28.7	1
0	14815	28.7	0
0	14816	28.7	0
0	14833	28.75	1
0	14834	28.75	1
0	14835	28.75	0
0	14836	28.75	0
0	14863	28.8	1
0	14864	28.8	1
0	14865	28.8	0
0	14866	28.8	0
0	14868	28.8	1
0	14869	28.8	1
0	14870	28.8	0
0	14871	28.8	0
0	14888	28.85	1
0	14889	28.85	1
0	14890	28.85	0
0	14891	28.85	0
0	14904	28.9	1
0	14905	28.9	1
0	14906	28.9	0
0	14907	28.9	0
0	14909	28.9	1
0	14910	28.9	1
0	14911	28.9	0
0	14912	28.9	0
0	14929	28.95	1
0	14930	28.95	1
0	14931	28.95	0
0	14932	28.95	0
0	14945	29	1
0	14946	29	1
0	14947	29	0
0	14948	29	0
0	14950	29	1
0	14951	29	1
0	14952	29	0
0	14953	29	0
0	14970	29.05	1
0	14971	29.05	1
0	14972	29.05	0
0	14973	29.05	0
0	14990	29.1	1
0	14991	29.1	1
0	14992	29.1	0
0	14993	29.1	0
0	14995	29.1	1
0	14996	29.1	1
0	14997	29.1	0
0	14998	29.1	0
0	15019	29.15	1
0	15020	29.15	1
0	15021	29.15	0
0	15022	29.15	0
0	15061	29.2	1
0	15062	29.2	1
0	15063	29.2	0
0	15064	29.2	0
0	15066	29.2	1
0	15067	29.2	1
0	15068	29.2	0
0	15069	29.2	0
0	15086	29.25	1
0	15087	29.25	1
0	15088	29.25	0
0	15089	29.25	0
0	15102	29.3	1
0	15103	29.3	1
0	15104	29.3	0
0	15105	29.3	0
0	15107	29.3	1
0	15108	29.3	1
0	15109	29.3	0
0	15110	29.3	0
0	15141	29.35	1
0	15142	29.35	1
0	15143	29.35	0
0	15144	29.35	0
0	15157	29.4	1
0	15158	29.4	1
0	15159	29.4	0
0	15160	29.4	0
0	15162	29.4	1
0	15163	29.4	1
0	15164	29.4	0
0	15165	29.4	0
0	15182	29.45	1
0	15183	29.45	1
0	15184	29.45	0
0	15185	29.45	0
0	15198	29.5	1
0	15199	29.5	1
0	15200	29.5	0
0	15201	29.5	0
0	15203	29.5	1
0	15204	29.5	1
0	15205	29.5	0
0	15206	29.5	0
0	15223	29.55	1
0	15224	29.55	1
0	15225	29.55	0
0	15226	29.55	0
0	15239	29.6	1
0	15240	29.6	1
0	15241	29.6	0
0	15242	29.6	0
0	15244	29.6	1
0	15245	29.6	1
0	15246	29.6	0
0	15247	29.6	0
0	15264	29.65	1
0	15265	29.65	1
0	15266	29.65	0
0	15267	29.65	0
0	15280	29.7	1
0	15281	29.7	1
0	15282	29.7	0
0	15283	29.7	0
0	15285	29.7	1
0	15286	29.7	1
0	15287	29.7	0
0	15288	29.7	0
0	15319	29.75	1
0	15320	29.75	1
0	15321	29.75	0
0	15322	29.75	0
0	15335	29.8	1
0	15336	29.8	1
0	15337	29.8	0
0	15338	29.8	0
0	15340	29.8	1
0	15341	29.8	1
0	15342	29.8	0
0	15343	29.8	0
0	15360	29.85	1
0	15361	29.85	1
0	15362	29.85	0
0	15363	29.85	0
0	15390	29.9	1
0	15391	29.9	1
0	15392	29.9	0
0	15393	29.9	0
0	15395	29.9	1
0	15396	29.9	1
0	15397	29.9	0
0	15398	29.9	0
0	15415	29.95	1
0	15416	29.95	1
0	15417	29.95	0
0	15418	29.95	0
0	15432	30	1
0	15433	30	1
0	15434	30	0
0	15435	30	0
0	15437	30	1
0	15438	30	1
0	15439	30	0
0	15440	30	0
0	15457	30.05	1
0	15458	30.05	1
0	15459	30.05	0
0	15460	30.05	0
0	15477	30.1	1
0	15478	30.1	1
0	15479	30.1	0
0	15480	30.1	0
0	15482	30.1	1
0	15483	30.1	1
0	15484	30.1	0
0	15485	30.1	0
0	15506	30.15	1
0	15507	30.15	1
0	15508	30.15	0
0	15509	30.15	0
0	15522	30.2	1
0	15523	30.2	1
0	15524	30.2	0
0	15525	30.2	0
0	15527	30.2	1
0	15528	30.2	1
0	15529	30.2	0
0	15530	30.2	0
0	15547	30.25	1
0	15548	30.25	1
0	15549	30.25	0
0	15550	30.25	0
0	15589	30.3	1
0	15590	30.3	1
0	15591	30.3	0
0	15592	30.3	0
0	15594	30.3	1
0	15595	30.3	1
0	15596	30.3	0
0	15597	30.3	0
0	15614	30.35	1
0	15615	30.35	1
0	15616	30.35	0
0	15617	30.35	0
0	15630	30.4	1
0	15631	30.4	1
0	15632	30.4	0
0	15633	30.4	0
0	15635	30.4	1
0	15636	30.4	1
0	15637	30.4	0
0	15638	30.4	0
0	15669	30.45	1
0	15670	30.45	1
0	15671	30.45	0
0	15672	30.45	0
0	15685	30.5	1
0	15686	30.5	1
0	15687	30.5	0
0	15688	30.5	0
0	15690	30.5	1
0	15691	30.5	1
0	15692	30.5	0
0	15693	30.5	0
0	15710	30.55	1
0	15711	30.55	1
0	15712	30.55	0
0	15713	30.55	0
0	15726	30.6	1
0	15727	30.6	1
0	15728	30.6	0
0	15729	30.6	0
0	15731	30.6	1
0	15732	30.6	1
0	15733	30.6	0
0	15734	30.6	0
0	15751	30.65	1
0	15752	30.65	1
0	15753	30.65	0
0	15754	30.65	0
0	15767	30.7	1
0	15768	30.7	1
0	15769	30.7	0
0	15770	30.7	0
0	15772	30.7	1
0	15773	30.7	1
0	15774	30.7	0
0	15775	30.7	0
0	15792	30.75	1
0	15793	30.75	1
0	15794	30.75	0
0	15795	30.75	0
0	15808	30.8	1
0	15809	30.8	1
0	15810	30.8	0
0	15811	30.8	0
0	15813	30.8	1
0	15814	30.8	1
0	15815	30.8	0
0	15816	30.8	0
0	15847	30.85	1
0	15848	30.85	1
0	15849	30.85	0
0	15850	30.85	0
0	15863	30.9	1
0	15864	30.9	1
0	15865	30.9	0
0	15866	30.9	0
0	15868	30.9	1
0	15869	30.9	1
0	15870	30.9	0
0	15871	30.9	0
0	15888	30.95	1
0	15889	30.95	1
0	15890	30.95	0
0	15891	30.95	0
0	15918	31	1
0	15919	31	1
0	15920	31	0
0	15921	31	0
0	15923	31	1
0	15924	31	1
0	15925	31	0
0	15926	31	0
0	15943	31.05	1
0	15944	31.05	1
0	15945	31.05	0
0	15946	31.05	0
0	15963	31.1	1
0	15964	31.1	1
0	15965	31.1	0
0	15966	31.1	0
0	15968	31.1	1
0	15969	31.1	1
0	15970	31.1	0
0	15971	31.1	0
0	15992	31.15	1
0	15993	31.15	1
0	15994	31.15	0
0	15995	31.15	0
0	16008	31.2	1
0	16009	31.2	1
0	16010	31.2	0
0	16011	31.2	0
0	16013	31.2	1
0	16014	31.2	1
0	16015	31.2	0
0	16016	31.2	0
0	16033	31.25	1
0	16034	31.25	1
0	16035	31.25	0
0	16036	31.25	0
0	16049	31.3	1
0	16050	31.3	1
0	16051	31.3	0
0	16052	31.3	0
0	16054	31.3	1
0	16055	31.3	1
0	16056	31.3	0
0	16057	31.3	0
0	16074	31.35	1
0	16075	31.35	1
0	16076	31.35	0
0	16077	31.35	0
0	16116	31.4	1
0	16117	31.4	1
0	16118	31.4	0
0	16119	31.4	0
0	16121	31.4	1
0	16122	31.4	1
0	16123	31.4	0
0	16124	31.4	0
0	16141	31.45	1
0	16142	31.45	1
0	16143	31.45	0
0	16144	31.45	0
0	16157	31.5	1
0	16158	31.5	1
0	16159	31.5	0
0	16160	31.5	0
0	16162	31.5	1
0	16163	31.5	1
0	16164	31.5	0
0	16165	31.5	0
0	16196	31.55	1
0	16197	31.55	1
0	16198	31.55	0
0	16199	31.55	0
0	16212	31.6	1
0	16213	31.6	1
0	16214	31.6	0
0	16215	31.6	0
0	16217	31.6	1
0	16218	31.6	1
0	16219	31.6	0
0	16220	31.6	0
0	16237	31.65	1
0	16238	31.65	1
0	16239	31.65	0
0	16240	31.65	0
0	16253	31.7	1
0	16254	31.7	1
0	16255	31.7	0
0	16256	31.7	0
0	16258	31.7	1
0	16259	31.7	1
0	16260	31.7	0
0	16261	31.7	0
0	16278	31.75	1
0	16279	31.75	1
0	16280	31.75	0
0	16281	31.75	0
0	16294	31.8	1
0	16295	31.8	1
0	16296	31.8	0
0	16297	31.8	0
0	16299	31.8	1
0	16300	31.8	1
0	16301	31.8	0
0	16302	31.8	0
0	16319	31.85	1
0	16320	31.85	1
0	16321	31.85	0
0	16322	31.85	0
0	16335	31.9	1
0	16336	31.9	1
0	16337	31.9	0
0	16338	31.9	0
0	16340	31.9	1
0	16341	31.9	1
0	16342	31.9	0
0	16343	31.9	0
0	16374	31.95	1
0	16375	31.95	1
0	16376	31.95	0
0	16377	31.95	0
0	16393	32	1
0	16394	32	1
0	16395	32	0
0	16396	32	0
0	16398	32	1
0	16399	32	1
0	16400	32	0
0	16401	32	0
0	16418	32.05	1
0	16419	32.05	1
0	16420	32.05	0
0	16421	32.05	0
0	16452	32.1	1
0	16453	32.1	1
0	16454	32.1	0
0	16455	32.1	0
0	16457	32.1	1
0	16458	32.1	1
0	16459	32.1	0
0	16460	32.1	0
0	16481	32.15	1
0	16482	32.15	1
0	16483	32.15	0
0	16484	32.15	0
0	16497	32.2	1
0	16498	32.2	1
0	16499	32.2	0
0	16500	32.2	0
0	16502	32.2	1
0	16503	32.2	1
0	16504	32.2	0
0	16505	32.2	0
0	16522	32.25	1
0	16523	32.25	1
0	16524	32.25	0
0	16525	32.25	0
0	16538	32.3	1
0	16539	32.3	1
0	16540	32.3	0
0	16541	32.3	0
0	16543	32.3	1
0	16544	32.3	1
0	16545	32.3	0
0	16546	32.3	0
0	16563	32.35	1
0	16564	32.35	1
0	16565	32.35	0
0	16566	32.35	0
0	16579	32.4	1
0	16580	32.4	1
0	16581	32.4	0
0	16582	32.4	0
0	16584	32.4	1
0	16585	32.4	1
0	16586	32.4	0
0	16587	32.4	0
0	16604	32.45	1
0	16605	32.45	1
0	16606	32.45	0
0	16607	32.45	0
0	16646	32.5	1
0	16647	32.5	1
0	16648	32.5	0
0	16649	32.5	0
0	16651	32.5	1
0	16652	32.5	1
0	16653	32.5	0
0	16654	32.5	0
0	16671	32.55	1
0	16672	32.55	1
0	16673	32.55	0
0	16674	32.55	0
0	16687	32.6	1
0	16688	32.6	1
0	16689	32.6	0
0	16690	32.6	0
0	16692	32.6	1
0	16693	32.6	1
0	16694	32.6	0
0	16695	32.6	0
0	16726	32.65	1
0	16727	32.65	1
0	16728	32.65	0
0	16729	32.65	0
0	16742	32.7	1
0	16743	32.7	1
0	16744	32.7	0
0	16745	32.7	0
0	16747	32.7	1
0	16748	32.7	1
0	16749	32.7	0
0	16750	32.7	0
0	16767	32.75	1
0	16768	32.75	1
0	16769	32.75	0
0	16770	32.75	0
0	16783	32.8	1
0	16784	32.8	1
0	16785	32.8	0
0	16786	32.8	0
0	16788	32.8	1
0	16789	32.8	1
0	16790	32.8	0
0	16791	32.8	0
0	16808	32.85	1
0	16809	32.85	1
0	16810	32.85	0
0	16811	32.85	0
0	16824	32.9	1
0	16825	32.9	1
0	16826	32.9	0
0	16827	32.9	0
0	16829	32.9	1
0	16830	32.9	1
0	16831	32.9	0
0	16832	32.9	0
0	16849	32.95	1
0	16850	32.95	1
0	16851	32.95	0
0	16852	32.95	0
0	16865	33	1
0	16866	33	1
0	16867	33	0
0	16868	33	0
0	16870	33	1
0	16871	33	1
0	16872	33	0
0	16873	33	0
0	16893	33.05	1
0	16894	33.05	1
0	16895	33.05	0
0	16896	33.05	0
0	16913	33.1	1
0	16914	33.1	1
0	16915	33.1	0
0	16916	33.1	0
0	16918	33.1	1
0	16919	33.1	1
0	16920	33.1	0
0	16921	33.1	0
0	16942	33.15	1
0	16943	33.15	1
0	16944	33.15	0
0	16945	33.15	0
0	16958	33.2	1
0	16959	33.2	1
0	16960	33.2	0
0	16961	33.2	0
0	16963	33.2	1
0	16964	33.2	1
0	16965	33.2	0
0	16966	33.2	0
0	16983	33.25	1
0	16984	33.25	1
0	16985	33.25	0
0	16986	33.25	0
0	16999	33.3	1
0	17000	33.3	1
0	17001	33.3	0
0	17002	33.3	0
0	17004	33.3	1
0	17005	33.3	1
0	17006	33.3	0
0	17007	33.3	0
0	17024	33.35	1
0	17025	33.35	1
0	17026	33.35	0
0	17027	33.35	0
0	17040	33.4	1
0	17041	33.4	1
0	17042	33.4	0
0	17043	33.4	0
0	17045	33.4	1
0	17046	33.4	1
0	17047	33.4	0
0	17048	33.4	0
0	17065	33.45	1
0	17066	33.45	1
0	17067	33.45	0
0	17068	33.45	0
0	17081	33.5	1
0	17082	33.5	1
0	17083	33.5	0
0	17084	33.5	0
0	17086	33.5	1
0	17087	33.5	1
0	17088	33.5	0
0	17089	33.5	0
0	17106	33.55	1
0	17107	33.55	1
0	17108	33.55	0
0	17109	33.55	0
0	17122	33.6	1
0	17123	33.6	1
0	17124	33.6	0
0	17125	33.6	0
0	17127	33.6	1
0	17128	33.6	1
0	17129	33.6	0
0	17130	33.6	0
0	17147	33.65	1
0	17148	33.65	1
0	17149	33.65	0
0	17150	33.65	0
0	17163	33.7	1
0	17164	33.7	1
0	17165	33.7	0
0	17166	33.7	0
0	17168	33.7	1
0	17169	33.7	1
0	17170	33.7	0
0	17171	33.7	0
0	17188	33.75	1
0	17189	33.75	1
0	17190	33.75	0
0	17191	33.75	0
0	17204	33.8	1
0	17205	33.8	1
0	17206	33.8	0
0	17207	33.8	0
0	17209	33.8	1
0	17210	33.8	1
0	17211	33.8	0
0	17212	33.8	0
0	17229	33.85	1
0	17230	33.85	1
0	17231	33.85	0
0	17232	33.85	0
0	17245	33.9	1
0	17246	33.9	1
0	17247	33.9	0
0	17248	33.9	0
0	17250	33.9	1
0	17251	33.9	1
0	17252	33.9	0
0	17253	33.9	0
0	17270	33.95	1
0	17271	33.95	1
0	17272	33.95	0
0	17273	33.95	0
0	17286	34	1
0	17287	34	1
0	17288	34	0
0	17289	34	0
0	17291	34	1
0	17292	34	1
0	17293	34	0
0	17294	34	0
0	17311	34.05	1
0	17312	34.05	1
0	17313	34.05	0
0	17314	34.05	0
0	17331	34.1	1
0	17332	34.1	1
0	17333	34.1	0
0	17334	34.1	0
0	17336	34.1	1
0	17337	34.1	1
0	17338	34.1	0
0	17339	34.1	0
0	17360	34.15	1
0	17361	34.15	1
0	17362	34.15	0
0	17363	34.15	0
0	17376	34.2	1
0	17377	34.2	1
0	17378	34.2	0
0	17379	34.2	0
0	17381	34.2	1
0	17382	34.2	1
0	17383	34.2	0
0	17384	34.2	0
0	17415	34.25	1
0	17416	34.25	1
0	17417	34.25	0
0	17418	34.25	0
0	17431	34.3	1
0	17432	34.3	1
0	17433	34.3	0
0	17434	34.3	0
0	17436	34.3	1
0	17437	34.3	1
0	17438	34.3	0
0	17439	34.3	0
0	17456	34.35	1
0	17457	34.35	1
0	17458	34.35	0
0	17459	34.35	0
0	17510	34.4	1
0	17511	34.4	1
0	17512	34.4	0
0	17513	34.4	0
0	17515	34.4	1
0	17516	34.4	1
0	17517	34.4	0
0	17518	34.4	0
0	17535	34.45	1
0	17536	34.45	1
0	17537	34.45	0
0	17538	34.45	0
0	17551	34.5	1
0	17552	34.5	1
0	17553	34.5	0
0	17554	34.5	0
0	17556	34.5	1
0	17557	34.5	1
0	17558	34.5	0
0	17559	34.5	0
0	17576	34.55	1
0	17577	34.55	1
0	17578	34.55	0
0	17579	34.55	0
0	17592	34.6	1
0	17593	34.6	1
0	17594	34.6	0
0	17595	34.6	0
0	17597	34.6	1
0	17598	34.6	1
0	17599	34.6	0
0	17600	34.6	0
0	17617	34.65	1
0	17618	34.65	1
0	17619	34.65	0
0	17620	34.65	0
0	17633	34.7	1
0	17634	34.7	1
0	17635	34.7	0
0	17636	34.7	0
0	17638	34.7	1
0	17639	34.7	1
0	17640	34.7	0
0	17641	34.7	0
0	17658	34.75	1
0	17659	34.75	1
0	17660	34.75	0
0	17661	34.75	0
0	17688	34.8	1
0	17689	34.8	1
0	17690	34.8	0
0	17691	34.8	0
0	17693	34.8	1
0	17694	34.8	1
0	17695	34.8	0
0	17696	34.8	0
0	17713	34.85	1
0	17714	34.85	1
0	17715	34.85	0
0	17716	34.85	0
0	17729	34.9	1
0	17730	34.9	1
0	17731	34.9	0
0	17732	34.9	0
0	17734	34.9	1
0	17735	34.9	1
0	17736	34.9	0
0	17737	34.9	0
0	17768	34.95	1
0	17769	34.95	1
0	17770	34.95	0
0	17771	34.95	0
0	17785	35	1
0	17786	35	1
0	17787	35	0
0	17788	35	0
0	17790	35	1
0	17791	35	1
0	17792	35	0
0	17793	35	0
0	17810	35.05	1
0	17811	35.05	1
0	17812	35.05	0
0	17813	35.05	0
0	17830	35.1	1
0	17831	35.1	1
0	17832	35.1	0
0	17833	35.1	0
0	17835	35.1	1
0	17836	35.1	1
0	17837	35.1	0
0	17838	35.1	0
0	17859	35.15	1
0	17860	35.15	1
0	17861	35.15	0
0	17862	35.15	0
0	17875	35.2	1
0	17876	35.2	1
0	17877	35.2	0
0	17878	35.2	0
0	17880	35.2	1
0	17881	35.2	1
0	17882	35.2	0
0	17883	35.2	0
0	17900	35.25	1
0	17901	35.25	1
0	17902	35.25	0
0	17903	35.25	0
0	17916	35.3	1
0	17917	35.3	1
0	17918	35.3	0
0	17919	35.3	0
0	17921	35.3	1
0	17922	35.3	1
0	17923	35.3	0
0	17924	35.3	0
0	17955	35.35	1
0	17956	35.35	1
0	17957	35.35	0
0	17958	35.35	0
0	17971	35.4	1
0	17972	35.4	1
0	17973	35.4	0
0	17974	35.4	0
0	17976	35.4	1
0	17977	35.4	1
0	17978	35.4	0
0	17979	35.4	0
0	17996	35.45	1
0	17997	35.45	1
0	17998	35.45	0
0	17999	35.45	0
0	18035	35.5	1
0	18036	35.5	1
0	18037	35.5	0
0	18038	35.5	0
0	18040	35.5	1
0	18041	35.5	1
0	18042	35.5	0
0	18043	35.5	0
0	18060	35.55	1
0	18061	35.55	1
0	18062	35.55	0
0	18063	35.55	0
0	18076	35.6	1
0	18077	35.6	1
0	18078	35.6	0
0	18079	35.6	0
0	18081	35.6	1
0	18082	35.6	1
0	18083	35.6	0
0	18084	35.6	0
0	18101	35.65	1
0	18102	35.65	1
0	18103	35.65	0
0	18104	35.65	0
0	18117	35.7	1
0	18118	35.7	1
0	18119	35.7	0
0	18120	35.7	0
0	18122	35.7	1
0	18123	35.7	1
0	18124	35.7	0
0	18125	35.7	0
0	18142	35.75	1
0	18143	35.75	1
0	18144	35.75	0
0	18145	35.75	0
0	18158	35.8	1
0	18159	35.8	1
0	18160	35.8	0
0	18161	35.8	0
0	18163	35.8	1
0	18164	35.8	1
0	18165	35.8	0
0	18166	35.8	0
0	18183	35.85	1
0	18184	35.85	1
0	18185	35.85	0
0	18186	35.85	0
0	18213	35.9	1
0	18214	35.9	1
0	18215	35.9	0
0	18216	35.9	0
0	18218	35.9	1
0	18219	35.9	1
0	18220	35.9	0
0	18221	35.9	0
0	18238	35.95	1
0	18239	35.95	1
0	18240	35.95	0
0	18241	35.95	0
0	18254	36	1
0	18255	36	1
0	18256	36	0
0	18257	36	0
0	18259	36	1
0	18260	36	1
0	18261	36	0
0	18262	36	0
0	18302	36.05	1
0	18303	36.05	1
0	18304	36.05	0
0	18305	36.05	0
0	18322	36.1	1
0	18323	36.1	1
0	18324	36.1	0
0	18325	36.1	0
0	18327	36.1	1
0	18328	36.1	1
0	18329	36.1	0
0	18330	36.1	0
0	18351	36.15	1
0	18352	36.15	1
0	18353	36.15	0
0	18354	36.15	0
0	18367	36.2	1
0	18368	36.2	1
0	18369	36.2	0
0	18370	36.2	0
0	18372	36.2	1
0	18373	36.2	1
0	18374	36.2	0
0	18375	36.2	0
0	18392	36.25	1
0	18393	36.25	1
0	18394	36.25	0
0	18395	36.25	0
0	18408	36.3	1
0	18409	36.3	1
0	18410	36.3	0
0	18411	36.3	0
0	18413	36.3	1
0	18414	36.3	1
0	18415	36.3	0
0	18416	36.3	0
0	18433	36.35	1
0	18434	36.35	1
0	18435	36.35	0
0	18436	36.35	0
0	18449	36.4	1
0	18450	36.4	1
0	18451	36.4	0
0	18452	36.4	0
0	18454	36.4	1
0	18455	36.4	1
0	18456	36.4	0
0	18457	36.4	0
0	18488	36.45	1
0	18489	36.45	1
0	18490	36.45	0
0	18491	36.45	0
0	18504	36.5	1
0	18505	36.5	1
0	18506	36.5	0
0	18507	36.5	0
0	18509	36.5	1
0	18510	36.5	1
0	18511	36.5	0
0	18512	36.5	0
0	18529	36.55	1
0	18530	36.55	1
0	18531	36.55	0
0	18532	36.55	0
0	18580	36.6	1
0	18581	36.6	1
0	18582	36.6	0
0	18583	36.6	0
0	18585	36.6	1
0	18586	36.6	1
0	18587	36.6	0
0	18588	36.6	0
0	18605	36.65	1
0	18606	36.65	1
0	18607	36.65	0
0	18608	36.65	0
0	18621	36.7	1
0	18622	36.7	1
0	18623	36.7	0
0	18624	36.7	0
0	18626	36.7	1
0	18627	36.7	1
0	18628	36.7	0
0	18629	36.7	0
0	18646	36.75	1
0	18647	36.75	1
0	18648	36.75	0
0	18649	36.75	0
0	18662	36.8	1
0	18663	36.8	1
0	18664	36.8	0
0	18665	36.8	0
0	18667	36.8	1
0	18668	36.8	1
0	18669	36.8	0
0	18670	36.8	0
0	18687	36.85	1
0	18688	36.85	1
0	18689	36.85	0
0	18690	36.85	0
0	18703	36.9	1
0	18704	36.9	1
0	18705	36.9	0
0	18706	36.9	0
0	18708	36.9	1
0	18709	36.9	1
0	18710	36.9	0
0	18711	36.9	0
0	18728	36.95	1
0	18729	36.95	1
0	18730	36.95	0
0	18731	36.95	0
0	18761	37	1
0	18762	37	1
0	18763	37	0
0	18764	37	0
0	18766	37	1
0	18767	37	1
0	18768	37	0
0	18769	37	0
0	18786	37.05	1
0	18787	37.05	1
0	18788	37.05	0
0	18789	37.05	0
0	18806	37.1	1
0	18807	37.1	1
0	18808	37.1	0
0	18809	37.1	0
0	18811	37.1	1
0	18812	37.1	1
0	18813	37.1	0
0	18814	37.1	0
0	18873	37.15	1
0	18874	37.15	1
0	18875	37.15	0
0	18876	37.15	0
0	18889	37.2	1
0	18890	37.2	1
0	18891	37.2	0
0	18892	37.2	0
0	18894	37.2	1
0	18895	37.2	1
0	18896	37.2	0
0	18897	37.2	0
0	18914	37.25	1
0	18915	37.25	1
0	18916	37.25	0
0	18917	37.25	0
0	18930	37.3	1
0	18931	37.3	1
0	18932	37.3	0
0	18933	37.3	0
0	18935	37.3	1
0	18936	37.3	1
0	18937	37.3	0
0	18938	37.3	0
0	18955	37.35	1
0	18956	37.35	1
0	18957	37.35	0
0	18958	37.35	0
0	18971	37.4	1
0	18972	37.4	1
0	18973	37.4	0
0	18974	37.4	0
0	18976	37.4	1
0	18977	37.4	1
0	18978	37.4	0
0	18979	37.4	0
0	18996	37.45	1
0	18997	37.45	1
0	18998	37.45	0
0	18999	37.45	0
0	19012	37.5	1
0	19013	37.5	1
0	19014	37.5	0
0	19015	37.5	0
0	19017	37.5	1
0	19018	37.5	1
0	19019	37.5	0
0	19020	37.5	0
0	19051	37.55	1
0	19052	37.55	1
0	19053	37.55	0
0	19054	37.55	0
0	19067	37.6	1
0	19068	37.6	1
0	19069	37.6	0
0	19070	37.6	0
0	19072	37.6	1
0	19073	37.6	1
0	19074	37.6	0
0	19075	37.6	0
0	19092	37.65	1
0	19093	37.65	1
0	19094	37.65	0
0	19095	37.65	0
0	19122	37.7	1
0	19123	37.7	1
0	19124	37.7	0
0	19125	37.7	0
0	19127	37.7	1
0	19128	37.7	1
0	19129	37.7	0
0	19130	37.7	0
0	19147	37.75	1
0	19148	37.75	1
0	19149	37.75	0
0	19150	37.75	0
0	19163	37.8	1
0	19164	37.8	1
0	19165	37.8	0
0	19166	37.8	0
0	19168	37.8	1
0	19169	37.8	1
0	19170	37.8	0
0	19171	37.8	0
0	19188	37.85	1
0	19189	37.85	1
0	19190	37.85	0
0	19191	37.85	0
0	19204	37.9	1
0	19205	37.9	1
0	19206	37.9	0
0	19207	37.9	0
0	19209	37.9	1
0	19210	37.9	1
0	19211	37.9	0
0	19212	37.9	0
0	19229	37.95	1
0	19230	37.95	1
0	19231	37.95	0
0	19232	37.95	0
0	19245	38	1
0	19246	38	1
0	19247	38	0
0	19248	38	0
0	19250	38	1
0	19251	38	1
0	19252	38	0
0	19253	38	0
0	19270	38.05	1
0	19271	38.05	1
0	19272	38.05	0
0	19273	38.05	0
0	19304	38.1	1
0	19305	38.1	1
0	19306	38.1	0
0	19307	38.1	0
0	19309	38.1	1
0	19310	38.1	1
0	19311	38.1	0
0	19312	38.1	0
0	19333	38.15	1
0	19334	38.15	1
0	19335	38.15	0
0	19336	38.15	0
0	19349	38.2	1
0	19350	38.2	1
0	19351	38.2	0
0	19352	38.2	0
0	19354	38.2	1
0	19355	38.2	1
0	19356	38.2	0
0	19357	38.2	0
0	19384	38.25	1
0	19385	38.25	1
0	19386	38.25	0
0	19387	38.25	0
0	19400	38.3	1
0	19401	38.3	1
0	19402	38.3	0
0	19403	38.3	0
0	19405	38.3	1
0	19406	38.3	1
0	19407	38.3	0
0	19408	38.3	0
0	19425	38.35	1
0	19426	38.35	1
0	19427	38.35	0
0	19428	38.35	0
0	19441	38.4	1
0	19442	38.4	1
0	19443	38.4	0
0	19444	38.4	0
0	19446	38.4	1
0	19447	38.4	1
0	19448	38.4	0
0	19449	38.4	0
0	19466	38.45	1
0	19467	38.45	1
0	19468	38.45	0
0	19469	38.45	0
0	19482	38.5	1
0	19483	38.5	1
0	19484	38.5	0
0	19485	38.5	0
0	19487	38.5	1
0	19488	38.5	1
0	19489	38.5	0
0	19490	38.5	0
0	19507	38.55	1
0	19508	38.55	1
0	19509	38.55	0
0	19510	38.55	0
0	19523	38.6	1
0	19524	38.6	1
0	19525	38.6	0
0	19526	38.6	0
0	19528	38.6	1
0	19529	38.6	1
0	19530	38.6	0
0	19531	38.6	0
0	19551	38.65	1
0	19552	38.65	1
0	19553	38.65	0
0	19554	38.65	0
0	19567	38.7	1
0	19568	38.7	1
0	19569	38.7	0
0	19570	38.7	0
0	19572	38.7	1
0	19573	38.7	1
0	19574	38.7	0
0	19575	38.7	0
0	19592	38.75	1
0	19593	38.75	1
0	19594	38.75	0
0	19595	38.75	0
0	19608	38.8	1
0	19609	38.8	1
0	19610	38.8	0
0	19611	38.8	0
0	19613	38.8	1
0	19614	38.8	1
0	19615	38.8	0
0	19616	38.8	0
0	19633	38.85	1
0	19634	38.85	1
0	19635	38.85	0
0	19636	38.85	0
0	19649	38.9	1
0	19650	38.9	1
0	19651	38.9	0
0	19652	38.9	0
0	19654	38.9	1
0	19655	38.9	1
0	19656	38.9	0
0	19657	38.9	0
0	19674	38.95	1
0	19675	38.95	1
0	19676	38.95	0
0	19677	38.95	0
0	19690	39	1
0	19691	39	1
0	19692	39	0
0	19693	39	0
0	19695	39	1
0	19696	39	1
0	19697	39	0
0	19698	39	0
0	19715	39.05	1
0	19716	39.05	1
0	19717	39.05	0
0	19718	39.05	0
0	19735	39.1	1
0	19736	39.1	1
0	19737	39.1	0
0	19738	39.1	0
0	19740	39.1	1
0	19741	39.1	1
0	19742	39.1	0
0	19743	39.1	0
0	19764	39.15	1
0	19765	39.15	1
0	19766	39.15	0
0	19767	39.15	0
0	19780	39.2	1
0	19781	39.2	1
0	19782	39.2	0
0	19783	39.2	0
0	19785	39.2	1
0	19786	39.2	1
0	19787	39.2	0
0	19788	39.2	0
0	19805	39.25	1
0	19806	39.25	1
0	19807	39.25	0
0	19808	39.25	0
0	19821	39.3	1
0	19822	39.3	1
0	19823	39.3	0
0	19824	39.3	0
0	19826	39.3	1
0	19827	39.3	1
0	19828	39.3	0
0	19829	39.3	0
0	19846	39.35	1
0	19847	39.35	1
0	19848	39.35	0
0	19849	39.35	0
0	19862	39.4	1
0	19863	39.4	1
0	19864	39.4	0
0	19865	39.4	0
0	19867	39.4	1
0	19868	39.4	1
0	19869	39.4	0
0	19870	39.4	0
0	19887	39.45	1
0	19888	39.45	1
0	19889	39.45	0
0	19890	39.45	0
0	19903	39.5	1
0	19904	39.5	1
0	19905	39.5	0
0	19906	39.5	0
0	19908	39.5	1
0	19909	39.5	1
0	19910	39.5	0
0	19911	39.5	0
0	19928	39.55	1
0	19929	39.55	1
0	19930	39.55	0
0	19931	39.55	0
0	19944	39.6	1
0	19945	39.6	1
0	19946	39.6	0
0	19947	39.6	0
0	19949	39.6	1
0	19950	39.6	1
0	19951	39.6	0
0	19952	39.6	0
0	19969	39.65	1
0	19970	39.65	1
0	19971	39.65	0
0	19972	39.65	0
0	19985	39.7	1
0	19986	39.7	1
0	19987	39.7	0
0	19988	39.7	0
0	19990	39.7	1
0	19991	39.7	1
0	19992	39.7	0
0	19993	39.7	0
0	20010	39.75	1
0	20011	39.75	1
0	20012	39.75	0
0	20013	39.75	0
0	20026	39.8	1
0	20027	39.8	1
0	20028	39.8	0
0	20029	39.8	0
0	20031	39.8	1
0	20032	39.8	1
0	20033	39.8	0
0	20034	39.8	0
0	20089	39.85	1
0	20090	39.85	1
0	20091	39.85	0
0	20092	39.85	0
0	20105	39.9	1
0	20106	39.9	1
0	20107	39.9	0
0	20108	39.9	0
0	20110	39.9	1
0	20111	39.9	1
0	20112	39.9	0
0	20113	39.9	0
0	20130	39.95	1
0	20131	39.95	1
0	20132	39.95	0
0	20133	39.95	0
0	20161	40	1
0	20162	40	1
0	20163	40	0
0	20164	40	0
0	20166	40	1
0	20167	40	1
0	20168	40	0
0	20169	40	0
0	20186	40.05	1
0	20187	40.05	1
0	20188	40.05	0
0	20189	40.05	0
0	20206	40.1	1
0	20207	40.1	1
0	20208	40.1	0
0	20209	40.1	0
0	20211	40.1	1
0	20212	40.1	1
0	20213	40.1	0
0	20214	40.1	0
0	20235	40.15	1
0	20236	40.15	1
0	20237	40.15	0
0	20238	40.15	0
0	20251	40.2	1
0	20252	40.2	1
0	20253	40.2	0
0	20254	40.2	0
0	20256	40.2	1
0	20257	40.2	1
0	20258	40.2	0
0	20259	40.2	0
0	20276	40.25	1
0	20277	40.25	1
0	20278	40.25	0
0	20279	40.25	0
0	20292	40.3	1
0	20293	40.3	1
0	20294	40.3	0
0	20295	40.3	0
0	20297	40.3	1
0	20298	40.3	1
0	20299	40.3	0
0	20300	40.3	0
0	20317	40.35	1
0	20318	40.35	1
0	20319	40.35	0
0	20320	40.35	0
0	20359	40.4	1
0	20360	40.4	1
0	20361	40.4	0
0	20362	40.4	0
0	20364	40.4	1
0	20365	40.4	1
0	20366	40.4	0
0	20367	40.4	0
0	20384	40.45	1
0	20385	40.45	1
0	20386	40.45	0
0	20387	40.45	0
0	20400	40.5	1
0	20401	40.5	1
0	20402	40.5	0
0	20403	40.5	0
0	20405	40.5	1
0	20406	40.5	1
0	20407	40.5	0
0	20408	40.5	0
0	20439	40.55	1
0	20440	40.55	1
0	20441	40.55	0
0	20442	40.55	0
0	20455	40.6	1
0	20456	40.6	1
0	20457	40.6	0
0	20458	40.6	0
0	20460	40.6	1
0	20461	40.6	1
0	20462	40.6	0
0	20463	40.6	0
0	20480	40.65	1
0	20481	40.65	1
0	20482	40.65	0
0	20483	40.65	0
0	20496	40.7	1
0	20497	40.7	1
0	20498	40.7	0
0	20499	40.7	0
0	20501	40.7	1
0	20502	40.7	1
0	20503	40.7	0
0	20504	40.7	0
0	20521	40.75	1
0	20522	40.75	1
0	20523	40.75	0
0	20524	40.75	0
0	20537	40.8	1
0	20538	40.8	1
0	20539	40.8	0
0	20540	40.8	0
0	20542	40.8	1
0	20543	40.8	1
0	20544	40.8	0
0	20545	40.8	0
0	20562	40.85	1
0	20563	40.85	1
0	20564	40.85	0
0	20565	40.85	0
0	20578	40.9	1
0	20579	40.9	1
0	20580	40.9	0
0	20581	40.9	0
0	20583	40.9	1
0	20584	40.9	1
0	20585	40.9	0
0	20586	40.9	0
0	20617	40.95	1
0	20618	40.95	1
0	20619	40.95	0
0	20620	40.95	0
0	20633	41	1
0	20634	41	1
0	20635	41	0
0	20636	41	0
0	20638	41	1
0	20639	41	1
0	20640	41	0
0	20641	41	0
0	20658	41.05	1
0	20659	41.05	1
0	20660	41.05	0
0	20661	41.05	0
0	20692	41.1	1
0	20693	41.1	1
0	20694	41.1	0
0	20695	41.1	0
0	20697	41.1	1
0	20698	41.1	1
0	20699	41.1	0
0	20700	41.1	0
0	20721	41.15	1
0	20722	41.15	1
0	20723	41.15	0
0	20724	41.15	0
0	20737	41.2	1
0	20738	41.2	1
0	20739	41.2	0
0	20740	41.2	0
0	20742	41.2	1
0	20743	41.2	1
0	20744	41.2	0
0	20745	41.2	0
0	20762	41.25	1
0	20763	41.25	1
0	20764	41.25	0
0	20765	41.25	0
0	20778	41.3	1
0	20779	41.3	1
0	20780	41.3	0
0	20781	41.3	0
0	20783	41.3	1
0	20784	41.3	1
0	20785	41.3	0
0	20786	41.3	0
0	20803	41.35	1
0	20804	41.35	1
0	20805	41.35	0
0	20806	41.35	0
0	20819	41.4	1
0	20820	41.4	1
0	20821	41.4	0
0	20822	41.4	0
0	20824	41.4	1
0	20825	41.4	1
0	20826	41.4	0
0	20827	41.4	0
0	20844	41.45	1
0	20845	41.45	1
0	20846	41.45	0
0	20847	41.45	0
0	20886	41.5	1
0	20887	41.5	1
0	20888	41.5	0
0	20889	41.5	0
0	20891	41.5	1
0	20892	41.5	1
0	20893	41.5	0
0	20894	41.5	0
0	20911	41.55	1
0	20912	41.55	1
0	20913	41.55	0
0	20914	41.55	0
0	20927	41.6	1
0	20928	41.6	1
0	20929	41.6	0
0	20930	41.6	0
0	20932	41.6	1
0	20933	41.6	1
0	20934	41.6	0
0	20935	41.6	0
0	20966	41.65	1
0	20967	41.65	1
0	20968	41.65	0
0	20969	41.65	0
0	20982	41.7	1
0	20983	41.7	1
0	20984	41.7	0
0	20985	41.7	0
0	20987	41.7	1
0	20988	41.7	1
0	20989	41.7	0
0	20990	41.7	0
0	21007	41.75	1
0	21008	41.75	1
0	21009	41.75	0
0	21010	41.75	0
0	21023	41.8	1
0	21024	41.8	1
0	21025	41.8	0
0	21026	41.8	0
0	21028	41.8	1
0	21029	41.8	1
0	21030	41.8	0
0	21031	41.8	0
0	21048	41.85	1
0	21049	41.85	1
0	21050	41.85	0
0	21051	41.85	0
0	21064	41.9	1
0	21065	41.9	1
0	21066	41.9	0
0	21067	41.9	0
0	21069	41.9	1
0	21070	41.9	1
0	21071	41.9	0
0	21072	41.9	0
0	21089	41.95	1
0	21090	41.95	1
0	21091	41.95	0
0	21092	41.95	0
0	21108	42	1
0	21109	42	1
0	21110	42	0
0	21111	42	0
0	21113	42	1
0	21114	42	1
0	21115	42	0
0	21116	42	0
0	21147	42.05	1
0	21148	42.05	1
0	21149	42.05	0
0	21150	42.05	0
0	21167	42.1	1
0	21168	42.1	1
0	21169	42.1	0
0	21170	42.1	0
0	21172	42.1	1
0	21173	42.1	1
0	21174	42.1	0
0	21175	42.1	0
0	21196	42.15	1
0	21197	42.15	1
0	21198	42.15	0
0	21199	42.15	0
0	21226	42.2	1
0	21227	42.2	1
0	21228	42.2	0
0	21229	42.2	0
0	21231	42.2	1
0	21232	42.2	1
0	21233	42.2	0
0	21234	42.2	0
0	21251	42.25	1
0	21252	42.25	1
0	21253	42.25	0
0	21254	42.25	0
0	21267	42.3	1
0	21268	42.3	1
0	21269	42.3	0
0	21270	42.3	0
0	21272	42.3	1
0	21273	42.3	1
0	21274	42.3	0
0	21275	42.3	0
0	21292	42.35	1
0	21293	42.35	1
0	21294	42.35	0
0	21295	42.35	0
0	21308	42.4	1
0	21309	42.4	1
0	21310	42.4	0
0	21311	42.4	0
0	21313	42.4	1
0	21314	42.4	1
0	21315	42.4	0
0	21316	42.4	0
0	21333	42.45	1
0	21334	42.45	1
0	21335	42.45	0
0	21336	42.45	0
0	21349	42.5	1
0	21350	42.5	1
0	21351	42.5	0
0	21352	42.5	0
0	21354	42.5	1
0	21355	42.5	1
0	21356	42.5	0
0	21357	42.5	0
0	21374	42.55	1
0	21375	42.55	1
0	21376	42.55	0
0	21377	42.55	0
0	21416	42.6	1
0	21417	42.6	1
0	21418	42.6	0
0	21419	42.6	0
0	21421	42.6	1
0	21422	42.6	1
0	21423	42.6	0
0	21424	42.6	0
0	21441	42.65	1
0	21442	42.65	1
0	21443	42.65	0
0	21444	42.65	0
0	21457	42.7	1
0	21458	42.7	1
0	21459	42.7	0
0	21460	42.7	0
0	21462	42.7	1
0	21463	42.7	1
0	21464	42.7	0
0	21465	42.7	0
0	21496	42.75	1
0	21497	42.75	1
0	21498	42.75	0
0	21499	42.75	0
0	21512	42.8	1
0	21513	42.8	1
0	21514	42.8	0
0	21515	42.8	0
0	21517	42.8	1
0	21518	42.8	1
0	21519	42.8	0
0	21520	42.8	0
0	21537	42.85	1
0	21538	42.85	1
0	21539	42.85	0
0	21540	42.85	0
0	21553	42.9	1
0	21554	42.9	1
0	21555	42.9	0
0	21556	42.9	0
0	21558	42.9	1
0	21559	42.9	1
0	21560	42.9	0
0	21561	42.9	0
0	21578	42.95	1
0	21579	42.95	1
0	21580	42.95	0
0	21581	42.95	0
0	21594	43	1
0	21595	43	1
0	21596	43	0
0	21597	43	0
0	21599	43	1
0	21600	43	1
0	21601	43	0
0	21602	43	0
0	21619	43.05	1
0	21620	43.05	1
0	21621	43.05	0
0	21622	43.05	0
0	21639	43.1	1
0	21640	43.1	1
0	21641	43.1	0
0	21642	43.1	0
0	21644	43.1	1
0	21645	43.1	1
0	21646	43.1	0
0	21647	43.1	0
0	21671	43.15	1
0	21672	43.15	1
0	21673	43.15	0
0	21674	43.15	0
0	21687	43.2	1
0	21688	43.2	1
0	21689	43.2	0
0	21690	43.2	0
0	21692	43.2	1
0	21693	43.2	1
0	21694	43.2	0
0	21695	43.2	0
0	21712	43.25	1
0	21713	43.25	1
0	21714	43.25	0
0	21715	43.25	0
0	21728	43.3	1
0	21729	43.3	1
0	21730	43.3	0
0	21731	43.3	0
0	21733	43.3	1
0	21734	43.3	1
0	21735	43.3	0
0	21736	43.3	0
0	21753	43.35	1
0	21754	43.35	1
0	21755	43.35	0
0	21756	43.35	0
0	21769	43.4	1
0	21770	43.4	1
0	21771	43.4	0
0	21772	43.4	0
0	21774	43.4	1
0	21775	43.4	1
0	21776	43.4	0
0	21777	43.4	0
0	21794	43.45	1
0	21795	43.45	1
0	21796	43.45	0
0	21797	43.45	0
0	21810	43.5	1
0	21811	43.5	1
0	21812	43.5	0
0	21813	43.5	0
0	21815	43.5	1
0	21816	43.5	1
0	21817	43.5	0
0	21818	43.5	0
0	21835	43.55	1
0	21836	43.55	1
0	21837	43.55	0
0	21838	43.55	0
0	21851	43.6	1
0	21852	43.6	1
0	21853	43.6	0
0	21854	43.6	0
0	21856	43.6	1
0	21857	43.6	1
0	21858	43.6	0
0	21859	43.6	0
0	21876	43.65	1
0	21877	43.65	1
0	21878	43.65	0
0	21879	43.65	0
0	21892	43.7	1
0	21893	43.7	1
0	21894	43.7	0
0	21895	43.7	0
0	21897	43.7	1
0	21898	43.7	1
0	21899	43.7	0
0	21900	43.7	0
0	21917	43.75	1
0	21918	43.75	1
0	21919	43.75	0
0	21920	43.75	0
0	21933	43.8	1
0	21934	43.8	1
0	21935	43.8	0
0	21936	43.8	0
0	21938	43.8	1
0	21939	43.8	1
0	21940	43.8	0
0	21941	43.8	0
0	21958	43.85	1
0	21959	43.85	1
0	21960	43.85	0
0	21961	43.85	0
0	21974	43.9	1
0	21975	43.9	1
0	21976	43.9	0
0	21977	43.9	0
0	21979	43.9	1
0	21980	43.9	1
0	21981	43.9	0
0	21982	43.9	0
0	21999	43.95	1
0	22000	43.95	1
0	22001	43.95	0
0	22002	43.95	0
0	22015	44	1
0	22016	44	1
[...]
0	50639	97.3	1
0	50640	97.3	1
0	50661	97.35	1
0	50662	97.35	1
0	50663	97.35	1
0	50664	97.35	1
0	50677	97.4	1
0	50678	97.4	1
0	50679	97.4	1
0	50680	97.4	1
0	50681	97.4	1
0	50682	97.4	1
0	50683	97.4	1
0	50684	97.4	1
0	50733	97.45	1
0	50734	97.45	1
0	50735	97.45	1
0	50736	97.45	1
0	50749	97.5	1
0	50750	97.5	1
0	50751	97.5	1
0	50752	97.5	1
0	50753	97.5	1
0	50754	97.5	1
0	50755	97.5	1
0	50756	97.5	1
0	50777	97.55	1
0	50778	97.55	1
0	50779	97.55	1
0	50780	97.55	1
0	50807	97.6	1
0	50808	97.6	1
0	50809	97.6	1
0	50810	97.6	1
0	50811	97.6	1
0	50812	97.6	1
0	50813	97.6	1
0	50814	97.6	1
0	50835	97.65	1
0	50836	97.65	1
0	50837	97.65	1
0	50838	97.65	1
0	50851	97.7	1
0	50852	97.7	1
0	50853	97.7	1
0	50854	97.7	1
0	50855	97.7	1
0	50856	97.7	1
0	50857	97.7	1
0	50858	97.7	1
0	50879	97.75	1
0	50880	97.75	1
0	50881	97.75	1
0	50882	97.75	1
0	50895	97.8	1
0	50896	97.8	1
0	50897	97.8	1
0	50898	97.8	1
0	50899	97.8	1
0	50900	97.8	1
0	50901	97.8	1
0	50902	97.8	1
0	50937	97.85	1
0	50938	97.85	1
0	50939	97.85	1
0	50940	97.85	1
0	50953	97.9	1
0	50954	97.9	1
0	50955	97.9	1
0	50956	97.9	1
0	50957	97.9	1
0	50958	97.9	1
0	50959	97.9	1
0	50960	97.9	1
0	50981	97.95	1
0	50982	97.95	1
0	50983	97.95	1
0	50984	97.95	1
0	51025	98	1
0	51026	98	1
0	51027	98	1
0	51028	98	1
0	51029	98	1
0	51030	98	1
0	51031	98	1
0	51032	98	1
0	51053	98.05	1
0	51054	98.05	1
0	51055	98.05	1
0	51056	98.05	1
0	51069	98.1	1
0	51070	98.1	1
0	51071	98.1	1
0	51072	98.1	1
0	51073	98.1	1
0	51074	98.1	1
0	51075	98.1	1
0	51076	98.1	1
0	51111	98.15	1
0	51112	98.15	1
0	51113	98.15	1
0	51114	98.15	1
0	51127	98.2	1
0	51128	98.2	1
0	51129	98.2	1
0	51130	98.2	1
0	51131	98.2	1
0	51132	98.2	1
0	51133	98.2	1
0	51134	98.2	1
0	51155	98.25	1
0	51156	98.25	1
0	51157	98.25	1
0	51158	98.25	1
0	51171	98.3	1
0	51172	98.3	1
0	51173	98.3	1
0	51174	98.3	1
0	51175	98.3	1
0	51176	98.3	1
0	51177	98.3	1
0	51178	98.3	1
0	51199	98.35	1
0	51200	98.35	1
0	51201	98.35	1
0	51202	98.35	1
0	51229	98.4	1
0	51230	98.4	1
0	51231	98.4	1
0	51232	98.4	1
0	51233	98.4	1
0	51234	98.4	1
0	51235	98.4	1
0	51236	98.4	1
0	51257	98.45	1
0	51258	98.45	1
0	51259	98.45	1
0	51260	98.45	1
0	51273	98.5	1
0	51274	98.5	1
0	51275	98.5	1
0	51276	98.5	1
0	51277	98.5	1
0	51278	98.5	1
0	51279	98.5	1
0	51280	98.5	1
0	51318	98.55	1
0	51319	98.55	1
0	51320	98.55	1
0	51321	98.55	1
0	51334	98.6	1
0	51335	98.6	1
0	51336	98.6	1
0	51337	98.6	1
0	51338	98.6	1
0	51339	98.6	1
0	51340	98.6	1
0	51341	98.6	1
0	51362	98.65	1
0	51363	98.65	1
0	51364	98.65	1
0	51365	98.65	1
0	51392	98.7	1
0	51393	98.7	1
0	51394	98.7	1
0	51395	98.7	1
0	51396	98.7	1
0	51397	98.7	1
0	51398	98.7	1
0	51399	98.7	1
0	51420	98.75	1
0	51421	98.75	1
0	51422	98.75	1
0	51423	98.75	1
0	51436	98.8	1
0	51437	98.8	1
0	51438	98.8	1
0	51439	98.8	1
0	51440	98.8	1
0	51441	98.8	1
0	51442	98.8	1
0	51443	98.8	1
0	51464	98.85	1
0	51465	98.85	1
0	51466	98.85	1
0	51467	98.85	1
0	51480	98.9	1
0	51481	98.9	1
0	51482	98.9	1
0	51483	98.9	1
0	51484	98.9	1
0	51485	98.9	1
0	51486	98.9	1
0	51487	98.9	1
0	51508	98.95	1
0	51509	98.95	1
0	51510	98.95	1
0	51511	98.95	1
0	51524	99	1
0	51525	99	1
0	51526	99	1
0	51527	99	1
0	51528	99	1
0	51529	99	1
0	51530	99	1
0	51531	99	1
0	51552	99.05	1
0	51553	99.05	1
0	51554	99.05	1
0	51555	99.05	1
0	51582	99.1	1
0	51583	99.1	1
0	51584	99.1	1
0	51585	99.1	1
0	51586	99.1	1
0	51587	99.1	1
0	51588	99.1	1
0	51589	99.1	1
0	51610	99.15	1
0	51611	99.15	1
0	51612	99.15	1
0	51613	99.15	1
0	51626	99.2	1
0	51627	99.2	1
0	51628	99.2	1
0	51629	99.2	1
0	51630	99.2	1
0	51631	99.2	1
0	51632	99.2	1
0	51633	99.2	1
0	51668	99.25	1
0	51669	99.25	1
0	51670	99.25	1
0	51671	99.25	1
0	51684	99.3	1
0	51685	99.3	1
0	51686	99.3	1
0	51687	99.3	1
0	51688	99.3	1
0	51689	99.3	1
0	51690	99.3	1
0	51691	99.3	1
0	51712	99.35	1
0	51713	99.35	1
0	51714	99.35	1
0	51715	99.35	1
0	51728	99.4	1
0	51729	99.4	1
0	51730	99.4	1
0	51731	99.4	1
0	51732	99.4	1
0	51733	99.4	1
0	51734	99.4	1
0	51735	99.4	1
0	51756	99.45	1
0	51757	99.45	1
0	51758	99.45	1
0	51759	99.45	1
0	51772	99.5	1
0	51773	99.5	1
0	51774	99.5	1
0	51775	99.5	1
0	51776	99.5	1
0	51777	99.5	1
0	51778	99.5	1
0	51779	99.5	1
0	51800	99.55	1
0	51801	99.55	1
0	51802	99.55	1
0	51803	99.55	1
0	51816	99.6	1
0	51817	99.6	1
0	51818	99.6	1
0	51819	99.6	1
0	51820	99.6	1
0	51821	99.6	1
0	51822	99.6	1
0	51823	99.6	1
0	51858	99.65	1
0	51859	99.65	1
0	51860	99.65	1
0	51861	99.65	1
0	51874	99.7	1
0	51875	99.7	1
0	51876	99.7	1
0	51877	99.7	1
0	51878	99.7	1
0	51879	99.7	1
0	51880	99.7	1
0	51881	99.7	1
0	51902	99.75	1
0	51903	99.75	1
0	51904	99.75	1
0	51905	99.75	1
0	51932	99.8	1
0	51933	99.8	1
0	51934	99.8	1
0	51935	99.8	1
0	51936	99.8	1
0	51937	99.8	1
0	51938	99.8	1
0	51939	99.8	1
0	51960	99.85	1
0	51961	99.85	1
0	51962	99.85	1
0	51963	99.85	1
0	51976	99.9	1
0	51977	99.9	1
0	51978	99.9	1
0	51979	99.9	1
0	51980	99.9	1
0	51981	99.9	1
0	51982	99.9	1
0	51983	99.9	1
0	52004	99.95	1
0	52005	99.95	1
0	52006	99.95	1
0	52007	99.95	1
0	52035	100	1
0	52036	100	1
0	52037	100	1
0	52038	100	1
0	52039	100	1
0	52040	100	1
0	52041	100	1
0	52042	100	1
1	29	0.1	-nan
1	31	0.1	-nan
1	33	0.1	-nan
1	35	0.1	-nan
1	467	1.1	-nan
1	468	1.1	-nan
1	469	1.1	-nan
1	470	1.1	-nan
1	1017	2.1	-nan
1	1018	2.1	-nan
1	1019	2.1	-nan
1	1020	2.1	-nan
1	1567	3.1	-nan
1	1568	3.1	-nan
1	1569	3.1	-nan
1	1570	3.1	-nan
1	2113	4.1	-nan
1	2114	4.1	-nan
1	2115	4.1	-nan
1	2116	4.1	-nan
1	2656	5.1	-nan
1	2657	5.1	-nan
1	2658	5.1	-nan
1	2659	5.1	-nan
1	3345	6.1	-nan
1	3346	6.1	-nan
1	3347	6.1	-nan
1	3348	6.1	-nan
1	3884	7.1	-nan
1	3885	7.1	-nan
1	3886	7.1	-nan
1	3887	7.1	-nan
1	4407	8.1	-nan
1	4408	8.1	-nan
1	4409	8.1	-nan
1	4410	8.1	-nan
1	4961	9.1	-nan
1	4962	9.1	-nan
1	4963	9.1	-nan
1	4964	9.1	-nan
1	5532	10.1	-nan
1	5533	10.1	-nan
1	5534	10.1	-nan
1	5535	10.1	-nan
1	6078	11.1	-nan
1	6079	11.1	-nan
1	6080	11.1	-nan
1	6081	11.1	-nan
1	6590	12.1	-nan
1	6591	12.1	-nan
1	6592	12.1	-nan
1	6593	12.1	-nan
1	7134	13.1	-nan
1	7135	13.1	-nan
1	7136	13.1	-nan
1	7137	13.1	-nan
1	7713	14.1	-nan
1	7714	14.1	-nan
1	7715	14.1	-nan
1	7716	14.1	-nan
1	8219	15.1	-nan
1	8220	15.1	-nan
1	8221	15.1	-nan
1	8222	15.1	-nan
1	8791	16.1	-nan
1	8792	16.1	-nan
1	8793	16.1	-nan
1	8794	16.1	-nan
1	9331	17.1	-nan
1	9332	17.1	-nan
1	9333	17.1	-nan
1	9334	17.1	-nan
1	9823	18.1	-nan
1	9824	18.1	-nan
1	9825	18.1	-nan
1	9826	18.1	-nan
1	10317	19.1	-nan
1	10318	19.1	-nan
1	10319	19.1	-nan
1	10320	19.1	-nan
1	10813	20.1	-nan
1	10814	20.1	-nan
1	10815	20.1	-nan
1	10816	20.1	-nan
1	11325	21.1	-nan
1	11326	21.1	-nan
1	11327	21.1	-nan
1	11328	21.1	-nan
1	11799	22.1	-nan
1	11800	22.1	-nan
1	11801	22.1	-nan
1	11802	22.1	-nan
1	12217	23.1	-nan
1	12218	23.1	-nan
1	12219	23.1	-nan
1	12220	23.1	-nan
1	12715	24.1	-nan
1	12716	24.1	-nan
1	12717	24.1	-nan
1	12718	24.1	-nan
1	13163	25.1	-nan
1	13164	25.1	-nan
1	13165	25.1	-nan
1	13166	25.1	-nan
1	13621	26.1	-nan
1	13622	26.1	-nan
1	13623	26.1	-nan
1	13624	26.1	-nan
1	14071	27.1	-nan
1	14072	27.1	-nan
1	14073	27.1	-nan
1	14074	27.1	-nan
1	14506	28.1	-nan
1	14507	28.1	-nan
1	14508	28.1	-nan
1	14509	28.1	-nan
1	14986	29.1	-nan
1	14987	29.1	-nan
1	14988	29.1	-nan
1	14989	29.1	-nan
1	15473	30.1	-nan
1	15474	30.1	-nan
1	15475	30.1	-nan
1	15476	30.1	-nan
1	15959	31.1	-nan
1	15960	31.1	-nan
1	15961	31.1	-nan
1	15962	31.1	-nan
1	16448	32.1	-nan
1	16449	32.1	-nan
1	16450	32.1	-nan
1	16451	32.1	-nan
1	16909	33.1	-nan
1	16910	33.1	-nan
1	16911	33.1	-nan
1	16912	33.1	-nan
1	17327	34.1	-nan
1	17328	34.1	-nan
1	17329	34.1	-nan
1	17330	34.1	-nan
1	17826	35.1	-nan
1	17827	35.1	-nan
1	17828	35.1	-nan
1	17829	35.1	-nan
1	18318	36.1	-nan
1	18319	36.1	-nan
1	18320	36.1	-nan
1	18321	36.1	-nan
1	18802	37.1	-nan
1	18803	37.1	-nan
1	18804	37.1	-nan
1	18805	37.1	-nan
1	19300	38.1	-nan
1	19301	38.1	-nan
1	19302	38.1	-nan
1	19303	38.1	-nan
1	19731	39.1	-nan
1	19732	39.1	-nan
1	19733	39.1	-nan
1	19734	39.1	-nan
1	20202	40.1	-nan
1	20203	40.1	-nan
1	20204	40.1	-nan
1	20205	40.1	-nan
1	20688	41.1	-nan
1	20689	41.1	-nan
1	20690	41.1	-nan
1	20691	41.1	-nan
1	21163	42.1	-nan
1	21164	42.1	-nan
1	21165	42.1	-nan
1	21166	42.1	-nan
1	21635	43.1	-nan
1	21636	43.1	-nan
1	21637	43.1	-nan
1	21638	43.1	-nan
1	22056	44.1	-nan
1	22057	44.1	-nan
1	22058	44.1	-nan
1	22059	44.1	-nan
1	22555	45.1	-nan
1	22556	45.1	-nan
1	22557	45.1	-nan
1	22558	45.1	-nan
1	23027	46.1	-nan
1	23028	46.1	-nan
1	23029	46.1	-nan
1	23030	46.1	-nan
1	23451	47.1	-nan
1	23452	47.1	-nan
1	23453	47.1	-nan
1	23454	47.1	-nan
1	23921	48.1	-nan
1	23922	48.1	-nan
1	23923	48.1	-nan
1	23924	48.1	-nan
1	24407	49.1	-nan
1	24408	49.1	-nan
1	24409	49.1	-nan
1	24410	49.1	-nan
1	24894	50.1	-nan
1	24895	50.1	-nan
1	24896	50.1	-nan
1	24897	50.1	-nan
1	25380	51.1	-nan
1	25381	51.1	-nan
1	25382	51.1	-nan
1	25383	51.1	-nan
1	25855	52.1	-nan
1	25856	52.1	-nan
1	25857	52.1	-nan
1	25858	52.1	-nan
1	26341	53.1	-nan
1	26342	53.1	-nan
1	26343	53.1	-nan
1	26344	53.1	-nan
1	26813	54.1	-nan
1	26814	54.1	-nan
1	26815	54.1	-nan
1	26816	54.1	-nan
1	27300	55.1	-nan
1	27301	55.1	-nan
1	27302	55.1	-nan
1	27303	55.1	-nan
1	27786	56.1	-nan
1	27787	56.1	-nan
1	27788	56.1	-nan
1	27789	56.1	-nan
1	28250	57.1	-nan
1	28251	57.1	-nan
1	28252	57.1	-nan
1	28253	57.1	-nan
1	28700	58.1	-nan
1	28701	58.1	-nan
1	28702	58.1	-nan
1	28703	58.1	-nan
1	29268	59.1	-nan
1	29269	59.1	-nan
1	29270	59.1	-nan
1	29271	59.1	-nan
1	29795	60.1	-nan
1	29796	60.1	-nan
1	29797	60.1	-nan
1	29798	60.1	-nan
1	30303	61.1	-nan
1	30304	61.1	-nan
1	30305	61.1	-nan
1	30306	61.1	-nan
1	30887	62.1	-nan
1	30888	62.1	-nan
1	30889	62.1	-nan
1	30890	62.1	-nan
1	31402	63.1	-nan
1	31403	63.1	-nan
1	31404	63.1	-nan
1	31405	63.1	-nan
1	32000	64.1	-nan
1	32001	64.1	-nan
1	32002	64.1	-nan
1	32003	64.1	-nan
1	32596	65.1	-nan
1	32597	65.1	-nan
1	32598	65.1	-nan
1	32599	65.1	-nan
1	33202	66.1	-nan
1	33203	66.1	-nan
1	33204	66.1	-nan
1	33205	66.1	-nan
1	33767	67.1	-nan
1	33768	67.1	-nan
1	33769	67.1	-nan
1	33770	67.1	-nan
1	34322	68.1	-nan
1	34323	68.1	-nan
1	34324	68.1	-nan
1	34325	68.1	-nan
1	34851	69.1	-nan
1	34852	69.1	-nan
1	34853	69.1	-nan
1	34854	69.1	-nan
1	35458	70.1	-nan
1	35459	70.1	-nan
1	35460	70.1	-nan
1	35461	70.1	-nan
1	36028	71.1	-nan
1	36029	71.1	-nan
1	36030	71.1	-nan
1	36031	71.1	-nan
1	36597	72.1	-nan
1	36598	72.1	-nan
1	36599	72.1	-nan
1	36600	72.1	-nan
1	37167	73.1	-nan
1	37168	73.1	-nan
1	37169	73.1	-nan
1	37170	73.1	-nan
1	37751	74.1	-nan
1	37752	74.1	-nan
1	37753	74.1	-nan
1	37754	74.1	-nan
1	38318	75.1	-nan
1	38319	75.1	-nan
1	38320	75.1	-nan
1	38321	75.1	-nan
1	38833	76.1	-nan
1	38834	76.1	-nan
1	38835	76.1	-nan
1	38836	76.1	-nan
1	39404	77.1	-nan
1	39405	77.1	-nan
1	39406	77.1	-nan
1	39407	77.1	-nan
1	39974	78.1	-nan
1	39975	78.1	-nan
1	39976	78.1	-nan
1	39977	78.1	-nan
1	40528	79.1	-nan
1	40529	79.1	-nan
1	40530	79.1	-nan
1	40531	79.1	-nan
1	41118	80.1	-nan
1	41119	80.1	-nan
1	41120	80.1	-nan
1	41121	80.1	-nan
1	41693	81.1	-nan
1	41694	81.1	-nan
1	41695	81.1	-nan
1	41696	81.1	-nan
1	42201	82.1	-nan
1	42202	82.1	-nan
1	42203	82.1	-nan
1	42204	82.1	-nan
1	42795	83.1	-nan
1	42796	83.1	-nan
1	42797	83.1	-nan
1	42798	83.1	-nan
1	43365	84.1	-nan
1	43366	84.1	-nan
1	43367	84.1	-nan
1	43368	84.1	-nan
1	43936	85.1	-nan
1	43937	85.1	-nan
1	43938	85.1	-nan
1	43939	85.1	-nan
1	44520	86.1	-nan
1	44521	86.1	-nan
1	44522	86.1	-nan
1	44523	86.1	-nan
1	45082	87.1	-nan
1	45083	87.1	-nan
1	45084	87.1	-nan
1	45085	87.1	-nan
1	45598	88.1	-nan
1	45599	88.1	-nan
1	45600	88.1	-nan
1	45601	88.1	-nan
1	46180	89.1	-nan
1	46181	89.1	-nan
1	46182	89.1	-nan
1	46183	89.1	-nan
1	46751	90.1	-nan
1	46752	90.1	-nan
1	46753	90.1	-nan
1	46754	90.1	-nan
2	2935	5.528453385287	141
2	2946	5.542293385287	282
2	2956	5.546933385287	423
2	2982	5.556133385287	564
2	2992	5.560773385287	705
2	3002	5.569973385287	846
2	3012	5.574613385287	987
2	3022	5.583813385287	1128
2	3032	5.588453385287	1269
2	3042	5.597653385287	1410
2	3076	5.602293385287	1551
2	3338	6.083093385287	1692
2	3652	6.628453385287	1833
2	3662	6.633093385287	1974
2	3672	6.642293385287	2115
2	3968	7.178453385287	2256
2	4800	8.828453385287	2397
2	4871	8.928453385287	2538
2	4881	8.942293385287	2679
2	5184	9.478453385287	2820
2	5437	9.928453385287	2961
2	5745	10.478453385287	3102
2	5814	10.578453385287	3243
2	6132	11.128453385287	3384
2	6687	12.228453385287	3525
2	6901	12.628453385287	3666
2	6911	12.642293385287	3807
2	7312	13.328453385287	3948
2	7521	13.728453385287	4089
2	7620	13.878453385287	4230
2	7829	14.278453385287	4371
2	8375	15.378490461354	4512
2	8446	15.478453385287	4653
2	8456	15.492293385287	4794
2	9004	16.478617457155	4935
2	9387	17.128453385287	5076
2	9397	17.142293385287	5217
2	10294	19.028453385287	5358
2	10576	19.578453385287	5499
2	10867	20.128453385287	5640
2	11422	21.228453385287	5781
2	12312	23.228453385287	5922
2	12322	23.242293385287	6063
2	12849	24.328453385287	6204
2	13543	25.928453385287	6345
2	13812	26.478453385287	6486
2	14775	28.628453385287	6627
2	14785	28.642293385287	6768
2	15054	29.178453385287	6909
2	15582	30.278453385287	7050
2	16109	31.378453385287	7191
2	16639	32.478453385287	7332
2	17493	34.378453385287	7473
2	17503	34.392293385287	7614
2	18031	35.478453385287	7755
2	18298	36.028453385287	7896
2	18566	36.578453385287	8037
2	18573	36.592293385287	8178
2	18856	37.128453385287	8319
2	18866	37.142293385287	8460
2	20072	39.828453385287	8601
2	20082	39.842293385287	8742
2	20352	40.378453385287	8883
2	20879	41.478453385287	9024
2	21409	42.578453385287	9165
2	22263	44.478453385287	9306
2	22273	44.492293385287	9447
2	22801	45.578453385287	9588
2	23765	47.728453385287	9729
2	23775	47.742293385287	9870
2	24044	48.278453385287	10011
2	24571	49.378453385287	10152
2	25099	50.478453385287	10293
2	25626	51.578453385287	10434
2	25907	52.128453385287	10575
2	26434	53.228453385287	10716
2	26961	54.328453385287	10857
2	27489	55.428453385287	10998
2	28016	56.528453385287	11139
2	28758	58.128453385287	11280
2	28768	58.142293385287	11421
2	29369	59.228453385287	11562
2	30283	61.02874690222	11703
2	30585	61.578730848859	11844
2	30659	61.678453385287	11985
2	30669	61.692293385287	12126
2	30991	62.228453385287	12267
2	31572	63.328453385287	12408
2	31969	64.028537344159	12549
2	31976	64.042376766843	12690
2	32219	64.428453385287	12831
2	32310	64.578493235558	12972
2	32320	64.592332728667	13113
2	32654	65.128455262233	13254
2	32664	65.14229483464	13395
2	32898	65.528453385287	13536
2	33303	66.228397970835	13677
2	33537	66.628453385287	13818
2	33853	67.178453385287	13959
2	33953	67.328361537435	14100
2	34527	68.428340560348	14241
2	35013	69.328453385287	14382
2	35023	69.342293385287	14523
2	35153	69.528331268624	14664
2	35659	70.428453385287	14805
2	35787	70.628330353062	14946
2	36099	71.178330353062	15087
2	36295	71.528453385287	15228
2	36726	72.278330353062	15369
2	36926	72.628453385287	15510
2	37238	73.178453385287	15651
2	37366	73.378330353062	15792
2	37866	74.278453385287	15933
2	37994	74.478330353062	16074
2	38592	75.578330353062	16215
2	38888	76.128330353062	16356
2	39310	76.928453385287	16497
2	39320	76.942293385287	16638
2	39503	77.228330353062	16779
2	39647	77.478453385287	16920
2	40131	78.328330353062	17061
2	40585	79.128453385287	17202
2	40592	79.142293385287	17343
2	40764	79.428330353062	17484
2	41373	80.528330353062	17625
2	41519	80.778453385287	17766
2	41526	80.792293385287	17907
2	41985	81.628330353062	18048
2	42272	82.178330353062	18189
2	42390	82.378453385287	18330
2	42400	82.392293385287	18471
2	42438	82.406133385287	18612
2	42924	83.278330353062	18753
2	43038	83.478453385287	18894
2	43552	84.378330353062	19035
2	43666	84.578453385287	19176
2	43991	85.128453385287	19317
2	44193	85.478330353062	19458
2	44619	86.228453385287	19599
2	44821	86.578330353062	19740
2	45137	87.128330353062	19881
2	45697	88.228330353062	20022
2	45785	88.378453385287	20163
2	45795	88.392293385287	20304
2	46337	89.328330353062	20445
2	46423	89.478453385287	20586
2	46966	90.428330353062	20727
2	47052	90.578453385287	20868
3	2935	5.528453385287	141
3	2946	5.542293385287	282
3	2956	5.546933385287	423
3	2982	5.556133385287	564
3	2992	5.560773385287	705
3	3002	5.569973385287	846
3	3012	5.574613385287	987
3	3022	5.583813385287	1128
3	3032	5.588453385287	1269
3	3042	5.597653385287	1410
3	3076	5.602293385287	1551
3	3338	6.083093385287	1692
3	3652	6.628453385287	1833
3	3662	6.633093385287	1974
3	3672	6.642293385287	2115
3	3968	7.178453385287	2256
3	4800	8.828453385287	2397
3	4871	8.928453385287	2538
3	4881	8.942293385287	2679
3	5184	9.478453385287	2820
3	5437	9.928453385287	2961
3	5745	10.478453385287	3102
3	5814	10.578453385287	3243
3	6132	11.128453385287	3384
3	6687	12.228453385287	3525
3	6901	12.628453385287	3666
3	6911	12.642293385287	3807
3	7312	13.328453385287	3948
3	7521	13.728453385287	4089
3	7620	13.878453385287	4230
3	7829	14.278453385287	4371
3	8375	15.378490461354	4512
3	8446	15.478453385287	4653
3	8456	15.492293385287	4794
3	9004	16.478617457155	4935
3	9387	17.128453385287	5076
3	9397	17.142293385287	5217
3	10294	19.028453385287	5358
3	10576	19.578453385287	5499
3	10867	20.128453385287	5640
3	11422	21.228453385287	5781
3	12312	23.228453385287	5922
3	12322	23.242293385287	6063
3	12849	24.328453385287	6204
3	13543	25.928453385287	6345
3	13812	26.478453385287	6486
3	14775	28.628453385287	6627
3	14785	28.642293385287	6768
3	15054	29.178453385287	6909
3	15582	30.278453385287	7050
3	16109	31.378453385287	7191
3	16639	32.478453385287	7332
3	17493	34.378453385287	7473
3	17503	34.392293385287	7614
3	18031	35.478453385287	7755
3	18298	36.028453385287	7896
3	18566	36.578453385287	8037
3	18573	36.592293385287	8178
3	18856	37.128453385287	8319
3	18866	37.142293385287	8460
3	20072	39.828453385287	8601
3	20082	39.842293385287	8742
3	20352	40.378453385287	8883
3	20879	41.478453385287	9024
3	21409	42.578453385287	9165
3	22263	44.478453385287	9306
3	22273	44.492293385287	9447
3	22801	45.578453385287	9588
3	23765	47.728453385287	9729
3	23775	47.742293385287	9870
3	24044	48.278453385287	10011
3	24571	49.378453385287	10152
3	25099	50.478453385287	10293
3	25626	51.578453385287	10434
3	25907	52.128453385287	10575
3	26434	53.228453385287	10716
3	26961	54.328453385287	10857
3	27489	55.428453385287	10998
3	28016	56.528453385287	11139
3	28758	58.128453385287	11280
3	28768	58.142293385287	11421
3	29369	59.228453385287	11562
3	30283	61.02874690222	11703
3	30585	61.578730848859	11844
3	30659	61.678453385287	11985
3	30669	61.692293385287	12126
3	30991	62.228453385287	12267
3	31572	63.328453385287	12408
3	31969	64.028537344159	12549
3	31976	64.042376766843	12690
3	32219	64.428453385287	12831
3	32310	64.578493235558	12972
3	32320	64.592332728667	13113
3	32654	65.128455262233	13254
3	32664	65.14229483464	13395
3	32898	65.528453385287	13536
3	33303	66.228397970835	13677
3	33537	66.628453385287	13818
3	33853	67.178453385287	13959
3	33953	67.328361537435	14100
3	34527	68.428340560348	14241
3	35013	69.328453385287	14382
3	35023	69.342293385287	14523
3	35153	69.528331268624	14664
3	35659	70.428453385287	14805
3	35787	70.628330353062	14946
3	36099	71.178330353062	15087
3	36295	71.528453385287	15228
3	36726	72.278330353062	15369
3	36926	72.628453385287	15510
3	37238	73.178453385287	15651
3	37366	73.378330353062	15792
3	37866	74.278453385287	15933
3	37994	74.478330353062	16074
3	38592	75.578330353062	16215
3	38888	76.128330353062	16356
3	39310	76.928453385287	16497
3	39320	76.942293385287	16638
3	39503	77.228330353062	16779
3	39647	77.478453385287	16920
3	40131	78.328330353062	17061
3	40585	79.128453385287	17202
3	40592	79.142293385287	17343
3	40764	79.428330353062	17484
3	41373	80.528330353062	17625
3	41519	80.778453385287	17766
3	41526	80.792293385287	17907
3	41985	81.628330353062	18048
3	42272	82.178330353062	18189
3	42390	82.378453385287	18330
3	42400	82.392293385287	18471
3	42438	82.406133385287	18612
3	42924	83.278330353062	18753
3	43038	83.478453385287	18894
3	43552	84.378330353062	19035
3	43666	84.578453385287	19176
3	43991	85.128453385287	19317
3	44193	85.478330353062	19458
3	44619	86.228453385287	19599
3	44821	86.578330353062	19740
3	45137	87.128330353062	19881
3	45697	88.228330353062	20022
3	45785	88.378453385287	20163
3	45795	88.392293385287	20304
3	46337	89.328330353062	20445
3	46423	89.478453385287	20586
3	46966	90.428330353062	20727
3	47052	90.578453385287	20868

