version 2
run Cmov-0-20191021-22:37:09-11263
attr configname Cmov
attr datetime 20191021-22:37:09
attr experiment Cmov
attr inifile GwSimV1.ini
attr iterationvars ""
attr iterationvarsf ""
attr measurement ""
attr network NetworkTormV2
attr processid 11263
attr repetition 0
attr replication #0
attr resultdir results
attr runnumber 0
attr seedset 0
param **.mobility.traceFile "\"AllPaths/sPaths/Cmov.movements\""
param **.numNodes 5
param **.application.dataGenerationInterval 1s
param **.application.dataSizeInBytes 10
param **.application.ttl 999999s
param **application.nodesThatGen false
param **application.nodesGenMsg "\"\""
param **application.startMultipleMsg false
param **application.numMultipleMsg 100
param **application.hopsListSize 50
param **.application.endGeneratingMsg 99s
param **.routingLayer "\"RoutingLqeGw\""
param **.routing.maximumCacheSize 5000byte
param **.routing.maximumHopCount 25
param **.routing.useTTL false
param **.routing.waitBFsend 0.1
param **.routing.max_age 999999s
param **.routing.gateway_list "\"\""
param **.routing.actual_gateway "\"\""
param **.routing.gwCheckPeriod 5s
param **.neighboring.resetGPeriod 999s
param **.wirelessIfc.wirelessRange 40m
param **.numNodes 2
param **.application.usedRNG 1
param **.application.dataGenerationInterval 1s
param **.application.dataSizeInBytes 10
param **.application.ttl 999999s
param **application.destinationAddr "\"Wf:00:00:00:00:02\""
param **application.destinationBTAddr "\"Bt:00:00:00:00:02\""
param **application.nodesThatGen true
param **application.nodesGenMsg "\"0\""
param **application.startMultipleMsg true
param **application.numMultipleMsg 100
param **application.hopsListSize 50
param **.application.endGeneratingMsg 999999s
param **.routingLayer "\"RoutingLqeGw\""
param **.routing.maximumCacheSize 5000byte
param **.routing.maximumHopCount 25
param **.routing.useTTL false
param **.routing.waitBFsend 0.1
param **.routing.max_age 999999s
param **.routing.gateway_list "\"\""
param **.routing.actual_gateway "\"\""
param **.routing.gwCheckPeriod 5s
param **.neighboring.antiEntropyInterval 500ms
param **.neighboring.maximumRandomBackoffDuration 1s
param **.neighboring.delayPerDataMsg 0.1
param **neighboring.usedRNG 2
param **.neighboring.GWAddr "\"Wf:00:00:00:00:02\""
param **.neighboring.sendWifiFirst true
param **.neighboring.maxLengthGraph 20
param **.neighboring.max_age 999999s
param **.neighboring.max_absent_time 1s
param **.wirelessIfc.wirelessRange 40m
param **.wirelessIfc.neighbourScanInterval 50ms
param **.wirelessIfc.bandwidthBitRate 100000bps
param **.wirelessIfc.wirelessHeaderSize 32byte
param **.wirelessIfc.minSSI -90
param **.wirelessIfc.limitQueueTime 400ms
param **.wirelessIfc.my_limit_rate 0bps
param **.bluetoothIfc.wirelessRange 40m
param **.bluetoothIfc.neighbourScanInterval 100ms
param **.bluetoothIfc.bandwidthBitRate 100000bps
param **.bluetoothIfc.wirelessHeaderSize 16byte
param **.bluetoothIfc.minSSI -90
param **.mobilityType "\"BonnMotionMobility\""
param **.mobility.traceFile "\"paths/Moves2.movements\""
param **.mobility.is3D false
param **.mobility.nodeId -1

vector 0 NetworkTormV2 neighbourhoodSize:vector ETV
attr source neighbourhoodSize
vector 1 NetworkTormV2 deliveryRatio:vector ETV
attr source sum(totalDataBytesReceived)/sum(totalDataBytesReceivableByAllNodes)
vector 2 NetworkTormV2 dataBytesReceivedSum:vector ETV
attr source sum(dataBytesReceived)
vector 3 NetworkTormV2 totalBytesReceivedSum:vector ETV
attr source sum(totalBytesReceived)
0	16	0.05	4
0	17	0.05	4
0	18	0.05	4
0	19	0.05	4
0	20	0.05	4
0	62	0.1	4
0	64	0.1	4
0	66	0.1	4
0	68	0.1	4
0	70	0.1	4
0	72	0.1	4
0	73	0.1	4
0	74	0.1	4
0	75	0.1	4
0	76	0.1	4
0	132	0.15	4
0	133	0.15	4
0	134	0.15	4
0	135	0.15	4
0	136	0.15	4
0	177	0.2	4
0	178	0.2	4
0	179	0.2	4
0	180	0.2	4
0	181	0.2	4
0	183	0.2	4
0	184	0.2	4
0	185	0.2	4
0	186	0.2	4
0	187	0.2	4
0	238	0.25	4
0	239	0.25	4
0	240	0.25	4
0	241	0.25	4
0	242	0.25	4
0	283	0.3	4
0	284	0.3	4
0	285	0.3	4
0	286	0.3	4
0	287	0.3	4
0	289	0.3	4
0	290	0.3	4
0	291	0.3	4
0	292	0.3	4
0	293	0.3	4
0	344	0.35	4
0	345	0.35	4
0	346	0.35	4
0	347	0.35	4
0	348	0.35	4
0	389	0.4	4
0	390	0.4	4
0	391	0.4	4
0	392	0.4	4
0	393	0.4	4
0	395	0.4	4
0	396	0.4	4
0	397	0.4	4
0	398	0.4	4
0	399	0.4	4
0	450	0.45	4
0	451	0.45	4
0	452	0.45	4
0	453	0.45	4
0	454	0.45	4
0	495	0.5	4
0	496	0.5	4
0	497	0.5	4
0	498	0.5	4
0	499	0.5	4
0	501	0.5	4
0	502	0.5	4
0	503	0.5	4
0	504	0.5	4
0	505	0.5	4
0	556	0.55	4
0	557	0.55	4
0	558	0.55	4
0	559	0.55	4
0	560	0.55	4
0	601	0.6	4
0	602	0.6	4
0	603	0.6	4
0	604	0.6	4
0	605	0.6	4
0	607	0.6	4
0	608	0.6	4
0	609	0.6	4
0	610	0.6	4
0	611	0.6	4
0	662	0.65	4
0	663	0.65	4
0	664	0.65	4
0	665	0.65	4
0	666	0.65	4
0	707	0.7	4
0	708	0.7	4
0	709	0.7	4
0	710	0.7	4
0	711	0.7	4
0	713	0.7	4
0	714	0.7	4
0	715	0.7	4
0	716	0.7	4
0	717	0.7	4
0	768	0.75	4
0	769	0.75	4
0	770	0.75	4
0	771	0.75	4
0	772	0.75	4
0	813	0.8	4
0	814	0.8	4
0	815	0.8	4
0	816	0.8	4
0	817	0.8	4
0	819	0.8	4
0	820	0.8	4
0	821	0.8	4
0	822	0.8	4
0	823	0.8	4
0	874	0.85	4
0	875	0.85	4
0	876	0.85	4
0	877	0.85	4
0	878	0.85	4
0	919	0.9	4
0	920	0.9	4
0	921	0.9	4
0	922	0.9	4
0	923	0.9	4
0	925	0.9	4
0	926	0.9	4
0	927	0.9	4
0	928	0.9	4
0	929	0.9	4
0	980	0.95	4
0	981	0.95	4
0	982	0.95	4
0	983	0.95	4
0	984	0.95	4
0	1025	1	4
0	1026	1	4
0	1027	1	4
0	1028	1	4
0	1029	1	4
0	1031	1	4
0	1032	1	4
0	1033	1	4
0	1034	1	4
0	1035	1	4
0	1086	1.05	4
0	1087	1.05	4
0	1088	1.05	4
0	1089	1.05	4
0	1090	1.05	4
0	1136	1.1	4
0	1137	1.1	4
0	1138	1.1	4
0	1139	1.1	4
0	1140	1.1	4
0	1142	1.1	4
0	1143	1.1	4
0	1144	1.1	4
0	1145	1.1	4
0	1146	1.1	4
0	1413	1.15	4
0	1414	1.15	4
0	1415	1.15	4
0	1416	1.15	4
0	1417	1.15	4
0	1689	1.2	4
0	1690	1.2	4
0	1691	1.2	4
0	1692	1.2	4
0	1693	1.2	4
0	1695	1.2	4
0	1696	1.2	4
0	1697	1.2	4
0	1698	1.2	4
0	1699	1.2	4
0	1750	1.25	4
0	1751	1.25	4
0	1752	1.25	4
0	1753	1.25	4
0	1754	1.25	4
0	1795	1.3	4
0	1796	1.3	4
0	1797	1.3	4
0	1798	1.3	4
0	1799	1.3	4
0	1801	1.3	4
0	1802	1.3	4
0	1803	1.3	4
0	1804	1.3	4
0	1805	1.3	4
0	1856	1.35	4
0	1857	1.35	4
0	1858	1.35	4
0	1859	1.35	4
0	1860	1.35	4
0	1901	1.4	4
0	1902	1.4	4
0	1903	1.4	4
0	1904	1.4	4
0	1905	1.4	4
0	1907	1.4	4
0	1908	1.4	4
0	1909	1.4	4
0	1910	1.4	4
0	1911	1.4	4
0	1962	1.45	4
0	1963	1.45	4
0	1964	1.45	4
0	1965	1.45	4
0	1966	1.45	4
0	2007	1.5	4
0	2008	1.5	4
0	2009	1.5	4
0	2010	1.5	4
0	2011	1.5	4
0	2013	1.5	4
0	2014	1.5	4
0	2015	1.5	4
0	2016	1.5	4
0	2017	1.5	4
0	2068	1.55	4
0	2069	1.55	4
0	2070	1.55	4
0	2071	1.55	4
0	2072	1.55	4
0	2113	1.6	4
0	2114	1.6	4
0	2115	1.6	4
0	2116	1.6	4
0	2117	1.6	4
0	2119	1.6	4
0	2120	1.6	4
0	2121	1.6	4
0	2122	1.6	4
0	2123	1.6	4
0	2174	1.65	4
0	2175	1.65	4
0	2176	1.65	4
0	2177	1.65	4
0	2178	1.65	4
0	2446	1.7	4
0	2447	1.7	4
0	2448	1.7	4
0	2449	1.7	4
0	2450	1.7	4
0	2452	1.7	4
0	2453	1.7	4
0	2454	1.7	4
0	2455	1.7	4
0	2456	1.7	4
0	2711	1.75	4
0	2712	1.75	4
0	2713	1.75	4
0	2714	1.75	4
0	2715	1.75	4
0	2756	1.8	4
0	2757	1.8	4
0	2758	1.8	4
0	2759	1.8	4
0	2760	1.8	4
0	2762	1.8	4
0	2763	1.8	4
0	2764	1.8	4
0	2765	1.8	4
0	2766	1.8	4
0	2840	1.85	4
0	2841	1.85	4
0	2842	1.85	4
0	2843	1.85	4
0	2844	1.85	4
0	2885	1.9	4
0	2886	1.9	4
0	2887	1.9	4
0	2888	1.9	4
0	2889	1.9	4
0	2891	1.9	4
0	2892	1.9	4
0	2893	1.9	4
0	2894	1.9	4
0	2895	1.9	4
0	2946	1.95	4
0	2947	1.95	4
0	2948	1.95	4
0	2949	1.95	4
0	2950	1.95	4
0	2991	2	4
0	2992	2	4
0	2993	2	4
0	2994	2	4
0	2995	2	4
0	2997	2	4
0	2998	2	4
0	2999	2	4
0	3000	2	4
0	3001	2	4
0	3052	2.05	4
0	3053	2.05	4
0	3054	2.05	4
0	3055	2.05	4
0	3056	2.05	4
0	3102	2.1	4
0	3103	2.1	4
0	3104	2.1	4
0	3105	2.1	4
0	3106	2.1	4
0	3108	2.1	4
0	3109	2.1	4
0	3110	2.1	4
0	3111	2.1	4
0	3112	2.1	4
0	3168	2.15	4
0	3169	2.15	4
0	3170	2.15	4
0	3171	2.15	4
0	3172	2.15	4
0	3213	2.2	4
0	3214	2.2	4
0	3215	2.2	4
0	3216	2.2	4
0	3217	2.2	4
0	3219	2.2	4
0	3220	2.2	4
0	3221	2.2	4
0	3222	2.2	4
0	3223	2.2	4
0	3483	2.25	4
0	3484	2.25	4
0	3485	2.25	4
0	3486	2.25	4
0	3487	2.25	4
0	3702	2.3	4
0	3703	2.3	4
0	3704	2.3	4
0	3705	2.3	4
0	3706	2.3	4
0	3708	2.3	4
0	3709	2.3	4
0	3710	2.3	4
0	3711	2.3	4
0	3712	2.3	4
0	3763	2.35	4
0	3764	2.35	4
0	3765	2.35	4
0	3766	2.35	4
0	3767	2.35	4
0	3808	2.4	4
0	3809	2.4	4
0	3810	2.4	4
0	3811	2.4	4
0	3812	2.4	4
0	3814	2.4	4
0	3815	2.4	4
0	3816	2.4	4
0	3817	2.4	4
0	3818	2.4	4
0	3869	2.45	4
0	3870	2.45	4
0	3871	2.45	4
0	3872	2.45	4
0	3873	2.45	4
0	3914	2.5	4
0	3915	2.5	4
0	3916	2.5	4
0	3917	2.5	4
0	3918	2.5	4
0	3920	2.5	4
0	3921	2.5	4
0	3922	2.5	4
0	3923	2.5	4
0	3924	2.5	4
0	3975	2.55	4
0	3976	2.55	4
0	3977	2.55	4
0	3978	2.55	4
0	3979	2.55	4
0	4020	2.6	4
0	4021	2.6	4
0	4022	2.6	4
0	4023	2.6	4
0	4024	2.6	4
0	4026	2.6	4
0	4027	2.6	4
0	4028	2.6	4
0	4029	2.6	4
0	4030	2.6	4
0	4081	2.65	4
0	4082	2.65	4
0	4083	2.65	4
0	4084	2.65	4
0	4085	2.65	4
0	4126	2.7	4
0	4127	2.7	4
0	4128	2.7	4
0	4129	2.7	4
0	4130	2.7	4
0	4132	2.7	4
0	4133	2.7	4
0	4134	2.7	4
0	4135	2.7	4
0	4136	2.7	4
0	4187	2.75	4
0	4188	2.75	4
0	4189	2.75	4
0	4190	2.75	4
0	4191	2.75	4
0	4432	2.8	4
0	4433	2.8	4
0	4434	2.8	4
0	4435	2.8	4
0	4436	2.8	4
0	4438	2.8	4
0	4439	2.8	4
0	4440	2.8	4
0	4441	2.8	4
0	4442	2.8	4
0	4619	2.85	4
0	4620	2.85	4
0	4621	2.85	4
0	4622	2.85	4
0	4623	2.85	4
0	4664	2.9	4
0	4665	2.9	4
0	4666	2.9	4
0	4667	2.9	4
0	4668	2.9	4
0	4670	2.9	4
0	4671	2.9	4
0	4672	2.9	4
0	4673	2.9	4
0	4674	2.9	4
0	4748	2.95	4
0	4749	2.95	4
0	4750	2.95	4
0	4751	2.95	4
0	4752	2.95	4
0	4793	3	4
0	4794	3	4
0	4795	3	4
0	4796	3	4
0	4797	3	4
0	4799	3	4
0	4800	3	4
0	4801	3	4
0	4802	3	4
0	4803	3	4
0	4854	3.05	4
0	4855	3.05	4
0	4856	3.05	4
0	4857	3.05	4
0	4858	3.05	4
0	4904	3.1	4
0	4905	3.1	4
0	4906	3.1	4
0	4907	3.1	4
0	4908	3.1	4
0	4910	3.1	4
0	4911	3.1	4
0	4912	3.1	4
0	4913	3.1	4
0	4914	3.1	4
0	4970	3.15	4
0	4971	3.15	4
0	4972	3.15	4
0	4973	3.15	4
0	4974	3.15	4
0	5015	3.2	4
0	5016	3.2	4
0	5017	3.2	4
0	5018	3.2	4
0	5019	3.2	4
0	5021	3.2	4
0	5022	3.2	4
0	5023	3.2	4
0	5024	3.2	4
0	5025	3.2	4
0	5076	3.25	4
0	5077	3.25	4
0	5078	3.25	4
0	5079	3.25	4
0	5080	3.25	4
0	5121	3.3	4
0	5122	3.3	4
0	5123	3.3	4
0	5124	3.3	4
0	5125	3.3	4
0	5127	3.3	4
0	5128	3.3	4
0	5129	3.3	4
0	5130	3.3	4
0	5131	3.3	4
0	5411	3.35	4
0	5412	3.35	4
0	5413	3.35	4
0	5414	3.35	4
0	5415	3.35	4
0	5543	3.4	4
0	5544	3.4	4
0	5545	3.4	4
0	5546	3.4	4
0	5547	3.4	4
0	5549	3.4	4
0	5550	3.4	4
0	5551	3.4	4
0	5552	3.4	4
0	5553	3.4	4
0	5621	3.45	4
0	5622	3.45	4
0	5623	3.45	4
0	5624	3.45	4
0	5625	3.45	4
0	5712	3.5	4
0	5713	3.5	4
0	5714	3.5	4
0	5715	3.5	4
0	5716	3.5	4
0	5718	3.5	4
0	5719	3.5	4
0	5720	3.5	4
0	5721	3.5	4
0	5722	3.5	4
0	5773	3.55	4
0	5774	3.55	4
0	5775	3.55	4
0	5776	3.55	4
0	5777	3.55	4
0	5841	3.6	4
0	5842	3.6	4
0	5843	3.6	4
0	5844	3.6	4
0	5845	3.6	4
0	5847	3.6	4
0	5848	3.6	4
0	5849	3.6	4
0	5850	3.6	4
0	5851	3.6	4
0	5902	3.65	4
0	5903	3.65	4
0	5904	3.65	4
0	5905	3.65	4
0	5906	3.65	4
0	5947	3.7	4
0	5948	3.7	4
0	5949	3.7	4
0	5950	3.7	4
0	5951	3.7	4
0	5953	3.7	4
0	5954	3.7	4
0	5955	3.7	4
0	5956	3.7	4
0	5957	3.7	4
0	6008	3.75	4
0	6009	3.75	4
0	6010	3.75	4
0	6011	3.75	4
0	6012	3.75	4
0	6053	3.8	4
0	6054	3.8	4
0	6055	3.8	4
0	6056	3.8	4
0	6057	3.8	4
0	6059	3.8	4
0	6060	3.8	4
0	6061	3.8	4
0	6062	3.8	4
0	6063	3.8	4
0	6137	3.85	4
0	6138	3.85	4
0	6139	3.85	4
0	6140	3.85	4
0	6141	3.85	4
0	6411	3.9	4
0	6412	3.9	4
0	6413	3.9	4
0	6414	3.9	4
0	6415	3.9	4
0	6417	3.9	4
0	6418	3.9	4
0	6419	3.9	4
0	6420	3.9	4
0	6421	3.9	4
0	6565	3.95	4
0	6566	3.95	4
0	6567	3.95	4
0	6568	3.95	4
0	6569	3.95	4
0	6650	4	4
0	6651	4	4
0	6652	4	4
0	6653	4	4
0	6654	4	4
0	6656	4	4
0	6657	4	4
0	6658	4	4
0	6659	4	4
0	6660	4	4
0	6751	4.05	4
0	6752	4.05	4
0	6753	4.05	4
0	6754	4.05	4
0	6755	4.05	4
0	6801	4.1	4
0	6802	4.1	4
0	6803	4.1	4
0	6804	4.1	4
0	6805	4.1	4
0	6807	4.1	4
0	6808	4.1	4
0	6809	4.1	4
0	6810	4.1	4
0	6811	4.1	4
0	6872	4.15	4
0	6873	4.15	4
0	6874	4.15	4
0	6875	4.15	4
0	6876	4.15	4
0	6917	4.2	4
0	6918	4.2	4
0	6919	4.2	4
0	6920	4.2	4
0	6921	4.2	4
0	6923	4.2	4
0	6924	4.2	4
0	6925	4.2	4
0	6926	4.2	4
0	6927	4.2	4
0	6978	4.25	4
0	6979	4.25	4
0	6980	4.25	4
0	6981	4.25	4
0	6982	4.25	4
0	7023	4.3	4
0	7024	4.3	4
0	7025	4.3	4
0	7026	4.3	4
0	7027	4.3	4
0	7029	4.3	4
0	7030	4.3	4
0	7031	4.3	4
0	7032	4.3	4
0	7033	4.3	4
0	7084	4.35	4
0	7085	4.35	4
0	7086	4.35	4
0	7087	4.35	4
0	7088	4.35	4
0	7134	4.4	4
0	7135	4.4	4
0	7136	4.4	4
0	7137	4.4	4
0	7138	4.4	4
0	7140	4.4	4
0	7141	4.4	4
0	7142	4.4	4
0	7143	4.4	4
0	7144	4.4	4
0	7397	4.45	4
0	7398	4.45	4
0	7399	4.45	4
0	7400	4.45	4
0	7401	4.45	4
0	7526	4.5	4
0	7527	4.5	4
0	7528	4.5	4
0	7529	4.5	4
0	7530	4.5	4
0	7532	4.5	4
0	7533	4.5	4
0	7534	4.5	4
0	7535	4.5	4
0	7536	4.5	4
0	7587	4.55	4
0	7588	4.55	4
0	7589	4.55	4
0	7590	4.55	4
0	7591	4.55	4
0	7655	4.6	4
0	7656	4.6	4
0	7657	4.6	4
0	7658	4.6	4
0	7659	4.6	4
0	7661	4.6	4
0	7662	4.6	4
0	7663	4.6	4
0	7664	4.6	4
0	7665	4.6	4
0	7716	4.65	4
0	7717	4.65	4
0	7718	4.65	4
0	7719	4.65	4
0	7720	4.65	4
0	7761	4.7	4
0	7762	4.7	4
0	7763	4.7	4
0	7764	4.7	4
0	7765	4.7	4
0	7767	4.7	4
0	7768	4.7	4
0	7769	4.7	4
0	7770	4.7	4
0	7771	4.7	4
0	7822	4.75	4
0	7823	4.75	4
0	7824	4.75	4
0	7825	4.75	4
0	7826	4.75	4
0	7867	4.8	4
0	7868	4.8	4
0	7869	4.8	4
0	7870	4.8	4
0	7871	4.8	4
0	7873	4.8	4
0	7874	4.8	4
0	7875	4.8	4
0	7876	4.8	4
0	7877	4.8	4
0	7928	4.85	4
0	7929	4.85	4
0	7930	4.85	4
0	7931	4.85	4
0	7932	4.85	4
0	7973	4.9	4
0	7974	4.9	4
0	7975	4.9	4
0	7976	4.9	4
0	7977	4.9	4
0	7979	4.9	4
0	7980	4.9	4
0	7981	4.9	4
0	7982	4.9	4
0	7983	4.9	4
0	8034	4.95	4
0	8035	4.95	4
0	8036	4.95	4
0	8037	4.95	4
0	8038	4.95	4
0	8294	5	4
0	8295	5	4
0	8296	5	4
0	8297	5	4
0	8298	5	4
0	8300	5	4
0	8301	5	4
0	8302	5	4
0	8303	5	4
0	8304	5	4
0	8421	5.05	4
0	8422	5.05	4
0	8423	5.05	4
0	8424	5.05	4
0	8425	5.05	4
0	8471	5.1	4
0	8472	5.1	4
0	8473	5.1	4
0	8474	5.1	4
0	8475	5.1	4
0	8477	5.1	4
0	8478	5.1	4
0	8479	5.1	4
0	8480	5.1	4
0	8481	5.1	4
0	8583	5.15	4
0	8584	5.15	4
0	8585	5.15	4
0	8586	5.15	4
0	8587	5.15	4
0	8628	5.2	4
0	8629	5.2	4
0	8630	5.2	4
0	8631	5.2	4
0	8632	5.2	4
0	8634	5.2	4
0	8635	5.2	4
0	8636	5.2	4
0	8637	5.2	4
0	8638	5.2	4
0	8689	5.25	4
0	8690	5.25	4
0	8691	5.25	4
0	8692	5.25	4
0	8693	5.25	4
0	8734	5.3	4
0	8735	5.3	4
0	8736	5.3	4
0	8737	5.3	4
0	8738	5.3	4
0	8740	5.3	4
0	8741	5.3	4
0	8742	5.3	4
0	8743	5.3	4
0	8744	5.3	4
0	8795	5.35	4
0	8796	5.35	4
0	8797	5.35	4
0	8798	5.35	4
0	8799	5.35	4
0	8840	5.4	4
0	8841	5.4	4
0	8842	5.4	4
0	8843	5.4	4
0	8844	5.4	4
0	8846	5.4	4
0	8847	5.4	4
0	8848	5.4	4
0	8849	5.4	4
0	8850	5.4	4
0	8901	5.45	4
0	8902	5.45	4
0	8903	5.45	4
0	8904	5.45	4
0	8905	5.45	4
0	8951	5.5	4
0	8952	5.5	4
0	8953	5.5	4
0	8954	5.5	4
0	8955	5.5	4
0	8957	5.5	4
0	8958	5.5	4
0	8959	5.5	4
0	8960	5.5	4
0	8961	5.5	4
0	9184	5.55	4
0	9185	5.55	4
0	9186	5.55	4
0	9187	5.55	4
0	9188	5.55	4
0	9325	5.6	4
0	9326	5.6	4
0	9327	5.6	4
0	9328	5.6	4
0	9329	5.6	4
0	9331	5.6	4
0	9332	5.6	4
0	9333	5.6	4
0	9334	5.6	4
0	9335	5.6	4
0	9409	5.65	4
0	9410	5.65	4
0	9411	5.65	4
0	9412	5.65	4
0	9413	5.65	4
0	9477	5.7	4
0	9478	5.7	4
0	9479	5.7	4
0	9480	5.7	4
0	9481	5.7	4
0	9483	5.7	4
0	9484	5.7	4
0	9485	5.7	4
0	9486	5.7	4
0	9487	5.7	4
0	9555	5.75	4
0	9556	5.75	4
0	9557	5.75	4
0	9558	5.75	4
0	9559	5.75	4
0	9617	5.8	4
0	9618	5.8	4
0	9619	5.8	4
0	9620	5.8	4
0	9621	5.8	4
0	9623	5.8	4
0	9624	5.8	4
0	9625	5.8	4
0	9626	5.8	4
0	9627	5.8	4
0	9678	5.85	4
0	9679	5.85	4
0	9680	5.85	4
0	9681	5.85	4
0	9682	5.85	4
0	9723	5.9	4
0	9724	5.9	4
0	9725	5.9	4
0	9726	5.9	4
0	9727	5.9	4
0	9729	5.9	4
0	9730	5.9	4
0	9731	5.9	4
0	9732	5.9	4
0	9733	5.9	4
0	9784	5.95	4
0	9785	5.95	4
0	9786	5.95	4
0	9787	5.95	4
0	9788	5.95	4
0	9834	6	4
0	9835	6	4
0	9836	6	4
0	9837	6	4
0	9838	6	4
0	9840	6	4
0	9841	6	4
0	9842	6	4
0	9843	6	4
0	9844	6	4
0	9895	6.05	4
0	9896	6.05	4
0	9897	6.05	4
0	9898	6.05	4
0	9899	6.05	4
0	10116	6.1	4
0	10117	6.1	4
0	10118	6.1	4
0	10119	6.1	4
0	10120	6.1	4
0	10122	6.1	4
0	10123	6.1	4
0	10124	6.1	4
0	10125	6.1	4
0	10126	6.1	4
0	10287	6.15	4
0	10288	6.15	4
0	10289	6.15	4
0	10290	6.15	4
0	10291	6.15	4
0	10355	6.2	4
0	10356	6.2	4
0	10357	6.2	4
0	10358	6.2	4
0	10359	6.2	4
0	10361	6.2	4
0	10362	6.2	4
0	10363	6.2	4
0	10364	6.2	4
0	10365	6.2	4
0	10439	6.25	4
0	10440	6.25	4
0	10441	6.25	4
0	10442	6.25	4
0	10443	6.25	4
0	10507	6.3	4
0	10508	6.3	4
0	10509	6.3	4
0	10510	6.3	4
0	10511	6.3	4
0	10513	6.3	4
0	10514	6.3	4
0	10515	6.3	4
0	10516	6.3	4
0	10517	6.3	4
0	10591	6.35	4
0	10592	6.35	4
0	10593	6.35	4
0	10594	6.35	4
0	10595	6.35	4
0	10636	6.4	4
0	10637	6.4	4
0	10638	6.4	4
0	10639	6.4	4
0	10640	6.4	4
0	10642	6.4	4
0	10643	6.4	4
0	10644	6.4	4
0	10645	6.4	4
0	10646	6.4	4
0	10697	6.45	4
0	10698	6.45	4
0	10699	6.45	4
0	10700	6.45	4
0	10701	6.45	4
0	10747	6.5	4
0	10748	6.5	4
0	10749	6.5	4
0	10750	6.5	4
0	10751	6.5	4
0	10753	6.5	4
0	10754	6.5	4
0	10755	6.5	4
0	10756	6.5	4
0	10757	6.5	4
0	10808	6.55	4
0	10809	6.55	4
0	10810	6.55	4
0	10811	6.55	4
0	10812	6.55	4
0	10853	6.6	4
0	10854	6.6	4
0	10855	6.6	4
0	10856	6.6	4
0	10857	6.6	4
0	10859	6.6	4
0	10860	6.6	4
0	10861	6.6	4
0	10862	6.6	4
0	10863	6.6	4
0	11076	6.65	4
0	11077	6.65	4
0	11078	6.65	4
0	11079	6.65	4
0	11080	6.65	4
0	11381	6.7	4
0	11382	6.7	4
0	11383	6.7	4
0	11384	6.7	4
0	11385	6.7	4
0	11387	6.7	4
0	11388	6.7	4
0	11389	6.7	4
0	11390	6.7	4
0	11391	6.7	4
0	11725	6.75	4
0	11726	6.75	4
0	11727	6.75	4
0	11728	6.75	4
0	11729	6.75	4
0	11961	6.8	4
0	11962	6.8	4
0	11963	6.8	4
0	11964	6.8	4
0	11965	6.8	4
0	11967	6.8	4
0	11968	6.8	4
0	11969	6.8	4
0	11970	6.8	4
0	11971	6.8	4
0	12039	6.85	4
0	12040	6.85	4
0	12041	6.85	4
0	12042	6.85	4
0	12043	6.85	4
0	12084	6.9	4
0	12085	6.9	4
0	12086	6.9	4
0	12087	6.9	4
0	12088	6.9	4
0	12090	6.9	4
0	12091	6.9	4
0	12092	6.9	4
0	12093	6.9	4
0	12094	6.9	4
0	12168	6.95	4
0	12169	6.95	4
0	12170	6.95	4
0	12171	6.95	4
0	12172	6.95	4
0	12218	7	4
0	12219	7	4
0	12220	7	4
0	12221	7	4
0	12222	7	4
0	12224	7	4
0	12225	7	4
0	12226	7	4
0	12227	7	4
0	12228	7	4
0	12279	7.05	4
0	12280	7.05	4
0	12281	7.05	4
0	12282	7.05	4
0	12283	7.05	4
0	12329	7.1	4
0	12330	7.1	4
0	12331	7.1	4
0	12332	7.1	4
0	12333	7.1	4
0	12335	7.1	4
0	12336	7.1	4
0	12337	7.1	4
0	12338	7.1	4
0	12339	7.1	4
0	12419	7.15	4
0	12420	7.15	4
0	12421	7.15	4
0	12422	7.15	4
0	12423	7.15	4
0	12642	7.2	4
0	12643	7.2	4
0	12644	7.2	4
0	12645	7.2	4
0	12646	7.2	4
0	12648	7.2	4
0	12649	7.2	4
0	12650	7.2	4
0	12651	7.2	4
0	12652	7.2	4
0	12844	7.25	4
0	12845	7.25	4
0	12846	7.25	4
0	12847	7.25	4
0	12848	7.25	4
0	12935	7.3	4
0	12936	7.3	4
0	12937	7.3	4
0	12938	7.3	4
0	12939	7.3	4
0	12941	7.3	4
0	12942	7.3	4
0	12943	7.3	4
0	12944	7.3	4
0	12945	7.3	4
0	13019	7.35	4
0	13020	7.35	4
0	13021	7.35	4
0	13022	7.35	4
0	13023	7.35	4
0	13069	7.4	4
0	13070	7.4	4
0	13071	7.4	4
0	13072	7.4	4
0	13073	7.4	4
0	13075	7.4	4
0	13076	7.4	4
0	13077	7.4	4
0	13078	7.4	4
0	13079	7.4	4
0	13130	7.45	4
0	13131	7.45	4
0	13132	7.45	4
0	13133	7.45	4
0	13134	7.45	4
0	13198	7.5	4
0	13199	7.5	4
0	13200	7.5	4
0	13201	7.5	4
0	13202	7.5	4
0	13204	7.5	4
0	13205	7.5	4
0	13206	7.5	4
0	13207	7.5	4
0	13208	7.5	4
0	13259	7.55	4
0	13260	7.55	4
0	13261	7.55	4
0	13262	7.55	4
0	13263	7.55	4
0	13304	7.6	4
0	13305	7.6	4
0	13306	7.6	4
0	13307	7.6	4
0	13308	7.6	4
0	13310	7.6	4
0	13311	7.6	4
0	13312	7.6	4
0	13313	7.6	4
0	13314	7.6	4
0	13365	7.65	4
0	13366	7.65	4
0	13367	7.65	4
0	13368	7.65	4
0	13369	7.65	4
0	13433	7.7	4
0	13434	7.7	4
0	13435	7.7	4
0	13436	7.7	4
0	13437	7.7	4
0	13439	7.7	4
0	13440	7.7	4
0	13441	7.7	4
0	13442	7.7	4
0	13443	7.7	4
0	13644	7.75	4
0	13645	7.75	4
0	13646	7.75	4
0	13647	7.75	4
0	13648	7.75	4
0	13746	7.8	4
0	13747	7.8	4
0	13748	7.8	4
0	13749	7.8	4
0	13750	7.8	4
0	13752	7.8	4
0	13753	7.8	4
0	13754	7.8	4
0	13755	7.8	4
0	13756	7.8	4
0	13853	7.85	4
0	13854	7.85	4
0	13855	7.85	4
0	13856	7.85	4
0	13857	7.85	4
0	13921	7.9	4
0	13922	7.9	4
0	13923	7.9	4
0	13924	7.9	4
0	13925	7.9	4
0	13927	7.9	4
0	13928	7.9	4
0	13929	7.9	4
0	13930	7.9	4
0	13931	7.9	4
0	14005	7.95	4
0	14006	7.95	4
0	14007	7.95	4
0	14008	7.95	4
0	14009	7.95	4
0	14050	8	4
0	14051	8	4
0	14052	8	4
0	14053	8	4
0	14054	8	4
0	14056	8	4
0	14057	8	4
0	14058	8	4
0	14059	8	4
0	14060	8	4
0	14134	8.05	4
0	14135	8.05	4
0	14136	8.05	4
0	14137	8.05	4
0	14138	8.05	4
0	14207	8.1	4
0	14208	8.1	4
0	14209	8.1	4
0	14210	8.1	4
0	14211	8.1	4
0	14213	8.1	4
0	14214	8.1	4
0	14215	8.1	4
0	14216	8.1	4
0	14217	8.1	4
0	14274	8.15	4
0	14275	8.15	4
0	14276	8.15	4
0	14277	8.15	4
0	14278	8.15	4
0	14365	8.2	4
0	14366	8.2	4
0	14367	8.2	4
0	14368	8.2	4
0	14369	8.2	4
0	14371	8.2	4
0	14372	8.2	4
0	14373	8.2	4
0	14374	8.2	4
0	14375	8.2	4
0	14426	8.25	4
0	14427	8.25	4
0	14428	8.25	4
0	14429	8.25	4
0	14430	8.25	4
0	14621	8.3	4
0	14622	8.3	4
0	14623	8.3	4
0	14624	8.3	4
0	14625	8.3	4
0	14627	8.3	4
0	14628	8.3	4
0	14629	8.3	4
0	14630	8.3	4
0	14631	8.3	4
0	14846	8.35	4
0	14847	8.35	4
0	14848	8.35	4
0	14849	8.35	4
0	14850	8.35	4
0	14937	8.4	4
0	14938	8.4	4
0	14939	8.4	4
0	14940	8.4	4
0	14941	8.4	4
0	14943	8.4	4
0	14944	8.4	4
0	14945	8.4	4
0	14946	8.4	4
0	14947	8.4	4
0	15038	8.45	4
0	15039	8.45	4
0	15040	8.45	4
0	15041	8.45	4
0	15042	8.45	4
0	15083	8.5	4
0	15084	8.5	4
0	15085	8.5	4
0	15086	8.5	4
0	15087	8.5	4
0	15089	8.5	4
0	15090	8.5	4
0	15091	8.5	4
0	15092	8.5	4
0	15093	8.5	4
0	15144	8.55	4
0	15145	8.55	4
0	15146	8.55	4
0	15147	8.55	4
0	15148	8.55	4
0	15212	8.6	4
0	15213	8.6	4
0	15214	8.6	4
0	15215	8.6	4
0	15216	8.6	4
0	15218	8.6	4
0	15219	8.6	4
0	15220	8.6	4
0	15221	8.6	4
0	15222	8.6	4
0	15290	8.65	4
0	15291	8.65	4
0	15292	8.65	4
0	15293	8.65	4
0	15294	8.65	4
0	15335	8.7	4
0	15336	8.7	4
0	15337	8.7	4
0	15338	8.7	4
0	15339	8.7	4
0	15341	8.7	4
0	15342	8.7	4
0	15343	8.7	4
0	15344	8.7	4
0	15345	8.7	4
0	15442	8.75	4
0	15443	8.75	4
0	15444	8.75	4
0	15445	8.75	4
0	15446	8.75	4
0	15492	8.8	4
0	15493	8.8	4
0	15494	8.8	4
0	15495	8.8	4
0	15496	8.8	4
0	15498	8.8	4
0	15499	8.8	4
0	15500	8.8	4
0	15501	8.8	4
0	15502	8.8	4
0	15703	8.85	4
0	15704	8.85	4
0	15705	8.85	4
0	15706	8.85	4
0	15707	8.85	4
0	15828	8.9	4
0	15829	8.9	4
0	15830	8.9	4
0	15831	8.9	4
0	15832	8.9	4
0	15834	8.9	4
0	15835	8.9	4
0	15836	8.9	4
0	15837	8.9	4
0	15838	8.9	4
0	15952	8.95	4
0	15953	8.95	4
0	15954	8.95	4
0	15955	8.95	4
0	15956	8.95	4
0	16025	9	4
0	16026	9	4
0	16027	9	4
0	16028	9	4
0	16029	9	4
0	16031	9	4
0	16032	9	4
0	16033	9	4
0	16034	9	4
0	16035	9	4
0	16086	9.05	4
0	16087	9.05	4
0	16088	9.05	4
0	16089	9.05	4
0	16090	9.05	4
0	16136	9.1	4
0	16137	9.1	4
0	16138	9.1	4
0	16139	9.1	4
0	16140	9.1	4
0	16142	9.1	4
0	16143	9.1	4
0	16144	9.1	4
0	16145	9.1	4
0	16146	9.1	4
0	16226	9.15	4
0	16227	9.15	4
0	16228	9.15	4
0	16229	9.15	4
0	16230	9.15	4
0	16271	9.2	4
0	16272	9.2	4
0	16273	9.2	4
0	16274	9.2	4
0	16275	9.2	4
0	16277	9.2	4
0	16278	9.2	4
0	16279	9.2	4
0	16280	9.2	4
0	16281	9.2	4
0	16332	9.25	4
0	16333	9.25	4
0	16334	9.25	4
0	16335	9.25	4
0	16336	9.25	4
0	16423	9.3	4
0	16424	9.3	4
0	16425	9.3	4
0	16426	9.3	4
0	16427	9.3	4
0	16429	9.3	4
0	16430	9.3	4
0	16431	9.3	4
0	16432	9.3	4
0	16433	9.3	4
0	16507	9.35	4
0	16508	9.35	4
0	16509	9.35	4
0	16510	9.35	4
0	16511	9.35	4
0	16702	9.4	4
0	16703	9.4	4
0	16704	9.4	4
0	16705	9.4	4
0	16706	9.4	4
0	16708	9.4	4
0	16709	9.4	4
0	16710	9.4	4
0	16711	9.4	4
0	16712	9.4	4
0	16927	9.45	4
0	16928	9.45	4
0	16929	9.45	4
0	16930	9.45	4
0	16931	9.45	4
0	17035	9.5	4
0	17036	9.5	4
0	17037	9.5	4
0	17038	9.5	4
0	17039	9.5	4
0	17041	9.5	4
0	17042	9.5	4
0	17043	9.5	4
0	17044	9.5	4
0	17045	9.5	4
0	17119	9.55	4
0	17120	9.55	4
0	17121	9.55	4
0	17122	9.55	4
0	17123	9.55	4
0	17164	9.6	4
0	17165	9.6	4
0	17166	9.6	4
0	17167	9.6	4
0	17168	9.6	4
0	17170	9.6	4
0	17171	9.6	4
0	17172	9.6	4
0	17173	9.6	4
0	17174	9.6	4
0	17225	9.65	4
0	17226	9.65	4
0	17227	9.65	4
0	17228	9.65	4
0	17229	9.65	4
0	17293	9.7	4
0	17294	9.7	4
0	17295	9.7	4
0	17296	9.7	4
0	17297	9.7	4
0	17299	9.7	4
0	17300	9.7	4
0	17301	9.7	4
0	17302	9.7	4
0	17303	9.7	4
0	17354	9.75	4
0	17355	9.75	4
0	17356	9.75	4
0	17357	9.75	4
0	17358	9.75	4
0	17399	9.8	4
0	17400	9.8	4
0	17401	9.8	4
0	17402	9.8	4
0	17403	9.8	4
0	17405	9.8	4
0	17406	9.8	4
0	17407	9.8	4
0	17408	9.8	4
0	17409	9.8	4
0	17500	9.85	4
0	17501	9.85	4
0	17502	9.85	4
0	17503	9.85	4
0	17504	9.85	4
0	17550	9.9	4
0	17551	9.9	4
0	17552	9.9	4
0	17553	9.9	4
0	17554	9.9	4
0	17556	9.9	4
0	17557	9.9	4
0	17558	9.9	4
0	17559	9.9	4
0	17560	9.9	4
0	17743	9.95	4
0	17744	9.95	4
0	17745	9.95	4
0	17746	9.95	4
0	17747	9.95	4
0	17868	10	4
0	17869	10	4
0	17870	10	4
0	17871	10	4
0	17872	10	4
0	17874	10	4
0	17875	10	4
0	17876	10	4
0	17877	10	4
0	17878	10	4
0	17975	10.05	4
0	17976	10.05	4
0	17977	10.05	4
0	17978	10.05	4
0	17979	10.05	4
0	18025	10.1	4
0	18026	10.1	4
0	18027	10.1	4
0	18028	10.1	4
0	18029	10.1	4
0	18031	10.1	4
0	18032	10.1	4
0	18033	10.1	4
0	18034	10.1	4
0	18035	10.1	4
0	18092	10.15	4
0	18093	10.15	4
0	18094	10.15	4
0	18095	10.15	4
0	18096	10.15	4
0	18137	10.2	4
0	18138	10.2	4
0	18139	10.2	4
0	18140	10.2	4
0	18141	10.2	4
0	18143	10.2	4
0	18144	10.2	4
0	18145	10.2	4
0	18146	10.2	4
0	18147	10.2	4
0	18238	10.25	4
0	18239	10.25	4
0	18240	10.25	4
0	18241	10.25	4
0	18242	10.25	4
0	18283	10.3	4
0	18284	10.3	4
0	18285	10.3	4
0	18286	10.3	4
0	18287	10.3	4
0	18289	10.3	4
0	18290	10.3	4
0	18291	10.3	4
0	18292	10.3	4
0	18293	10.3	4
0	18344	10.35	4
0	18345	10.35	4
0	18346	10.35	4
0	18347	10.35	4
0	18348	10.35	4
0	18458	10.4	4
0	18459	10.4	4
0	18460	10.4	4
0	18461	10.4	4
0	18462	10.4	4
0	18464	10.4	4
0	18465	10.4	4
0	18466	10.4	4
0	18467	10.4	4
0	18468	10.4	4
0	18519	10.45	4
0	18520	10.45	4
0	18521	10.45	4
0	18522	10.45	4
0	18523	10.45	4
0	18691	10.5	4
0	18692	10.5	4
0	18693	10.5	4
0	18694	10.5	4
0	18695	10.5	4
0	18697	10.5	4
0	18698	10.5	4
0	18699	10.5	4
0	18700	10.5	4
0	18701	10.5	4
0	18916	10.55	4
0	18917	10.55	4
0	18918	10.55	4
0	18919	10.55	4
0	18920	10.55	4
0	19007	10.6	4
0	19008	10.6	4
0	19009	10.6	4
0	19010	10.6	4
0	19011	10.6	4
0	19013	10.6	4
0	19014	10.6	4
0	19015	10.6	4
0	19016	10.6	4
0	19017	10.6	4
0	19068	10.65	4
0	19069	10.65	4
0	19070	10.65	4
0	19071	10.65	4
0	19072	10.65	4
0	19113	10.7	4
0	19114	10.7	4
0	19115	10.7	4
0	19116	10.7	4
0	19117	10.7	4
0	19119	10.7	4
0	19120	10.7	4
0	19121	10.7	4
0	19122	10.7	4
0	19123	10.7	4
0	19174	10.75	4
0	19175	10.75	4
0	19176	10.75	4
0	19177	10.75	4
0	19178	10.75	4
0	19247	10.8	4
0	19248	10.8	4
0	19249	10.8	4
0	19250	10.8	4
0	19251	10.8	4
0	19253	10.8	4
0	19254	10.8	4
0	19255	10.8	4
0	19256	10.8	4
0	19257	10.8	4
0	19308	10.85	4
0	19309	10.85	4
0	19310	10.85	4
0	19311	10.85	4
0	19312	10.85	4
0	19353	10.9	4
0	19354	10.9	4
0	19355	10.9	4
0	19356	10.9	4
0	19357	10.9	4
0	19359	10.9	4
0	19360	10.9	4
0	19361	10.9	4
0	19362	10.9	4
0	19363	10.9	4
0	19460	10.95	4
0	19461	10.95	4
0	19462	10.95	4
0	19463	10.95	4
0	19464	10.95	4
0	19505	11	4
0	19506	11	4
0	19507	11	4
0	19508	11	4
0	19509	11	4
0	19511	11	4
0	19512	11	4
0	19513	11	4
0	19514	11	4
0	19515	11	4
0	19693	11.05	4
0	19694	11.05	4
0	19695	11.05	4
0	19696	11.05	4
0	19697	11.05	4
0	19846	11.1	4
0	19847	11.1	4
0	19848	11.1	4
0	19849	11.1	4
0	19850	11.1	4
0	19852	11.1	4
0	19853	11.1	4
0	19854	11.1	4
0	19855	11.1	4
0	19856	11.1	4
0	19982	11.15	4
0	19983	11.15	4
0	19984	11.15	4
0	19985	11.15	4
0	19986	11.15	4
0	20027	11.2	4
0	20028	11.2	4
0	20029	11.2	4
0	20030	11.2	4
0	20031	11.2	4
0	20033	11.2	4
0	20034	11.2	4
0	20035	11.2	4
0	20036	11.2	4
0	20037	11.2	4
0	20093	11.25	4
0	20094	11.25	4
0	20095	11.25	4
0	20096	11.25	4
0	20097	11.25	4
0	20161	11.3	4
0	20162	11.3	4
0	20163	11.3	4
0	20164	11.3	4
0	20165	11.3	4
0	20167	11.3	4
0	20168	11.3	4
0	20169	11.3	4
0	20170	11.3	4
0	20171	11.3	4
0	20245	11.35	4
0	20246	11.35	4
0	20247	11.35	4
0	20248	11.35	4
0	20249	11.35	4
0	20290	11.4	4
0	20291	11.4	4
0	20292	11.4	4
0	20293	11.4	4
0	20294	11.4	4
0	20296	11.4	4
0	20297	11.4	4
0	20298	11.4	4
0	20299	11.4	4
0	20300	11.4	4
0	20351	11.45	4
0	20352	11.45	4
0	20353	11.45	4
0	20354	11.45	4
0	20355	11.45	4
0	20442	11.5	4
0	20443	11.5	4
0	20444	11.5	4
0	20445	11.5	4
0	20446	11.5	4
0	20448	11.5	4
0	20449	11.5	4
0	20450	11.5	4
0	20451	11.5	4
0	20452	11.5	4
0	20503	11.55	4
0	20504	11.55	4
0	20505	11.55	4
0	20506	11.55	4
0	20507	11.55	4
0	20675	11.6	4
0	20676	11.6	4
0	20677	11.6	4
0	20678	11.6	4
0	20679	11.6	4
0	20681	11.6	4
0	20682	11.6	4
0	20683	11.6	4
0	20684	11.6	4
0	20685	11.6	4
0	20900	11.65	4
0	20901	11.65	4
0	20902	11.65	4
0	20903	11.65	4
0	20904	11.65	4
0	21014	11.7	4
0	21015	11.7	4
0	21016	11.7	4
0	21017	11.7	4
0	21018	11.7	4
0	21020	11.7	4
0	21021	11.7	4
0	21022	11.7	4
0	21023	11.7	4
0	21024	11.7	4
0	21075	11.75	4
0	21076	11.75	4
0	21077	11.75	4
0	21078	11.75	4
0	21079	11.75	4
0	21120	11.8	4
0	21121	11.8	4
0	21122	11.8	4
0	21123	11.8	4
0	21124	11.8	4
0	21126	11.8	4
0	21127	11.8	4
0	21128	11.8	4
0	21129	11.8	4
0	21130	11.8	4
0	21186	11.85	4
0	21187	11.85	4
0	21188	11.85	4
0	21189	11.85	4
0	21190	11.85	4
0	21254	11.9	4
0	21255	11.9	4
0	21256	11.9	4
0	21257	11.9	4
0	21258	11.9	4
0	21260	11.9	4
0	21261	11.9	4
0	21262	11.9	4
0	21263	11.9	4
0	21264	11.9	4
0	21315	11.95	4
0	21316	11.95	4
0	21317	11.95	4
0	21318	11.95	4
0	21319	11.95	4
0	21388	12	4
0	21389	12	4
0	21390	12	4
0	21391	12	4
0	21392	12	4
0	21394	12	4
0	21395	12	4
0	21396	12	4
0	21397	12	4
0	21398	12	4
0	21495	12.05	4
0	21496	12.05	4
0	21497	12.05	4
0	21498	12.05	4
0	21499	12.05	4
0	21545	12.1	4
0	21546	12.1	4
0	21547	12.1	4
0	21548	12.1	4
0	21549	12.1	4
0	21551	12.1	4
0	21552	12.1	4
0	21553	12.1	4
0	21554	12.1	4
0	21555	12.1	4
0	21756	12.15	4
0	21757	12.15	4
0	21758	12.15	4
0	21759	12.15	4
0	21760	12.15	4
0	21965	12.2	4
0	21966	12.2	4
0	21967	12.2	4
0	21968	12.2	4
0	21969	12.2	4
0	21971	12.2	4
0	21972	12.2	4
0	21973	12.2	4
0	21974	12.2	4
0	21975	12.2	4
0	22072	12.25	4
0	22073	12.25	4
0	22074	12.25	4
0	22075	12.25	4
0	22076	12.25	4
0	22117	12.3	4
0	22118	12.3	4
0	22119	12.3	4
0	22120	12.3	4
0	22121	12.3	4
0	22123	12.3	4
0	22124	12.3	4
0	22125	12.3	4
0	22126	12.3	4
0	22127	12.3	4
0	22178	12.35	4
0	22179	12.35	4
0	22180	12.35	4
0	22181	12.35	4
0	22182	12.35	4
0	22223	12.4	4
0	22224	12.4	4
0	22225	12.4	4
0	22226	12.4	4
0	22227	12.4	4
0	22229	12.4	4
0	22230	12.4	4
0	22231	12.4	4
0	22232	12.4	4
0	22233	12.4	4
0	22307	12.45	4
0	22308	12.45	4
0	22309	12.45	4
0	22310	12.45	4
0	22311	12.45	4
0	22352	12.5	4
0	22353	12.5	4
0	22354	12.5	4
0	22355	12.5	4
0	22356	12.5	4
0	22358	12.5	4
0	22359	12.5	4
0	22360	12.5	4
0	22361	12.5	4
0	22362	12.5	4
0	22436	12.55	4
0	22437	12.55	4
0	22438	12.55	4
0	22439	12.55	4
0	22440	12.55	4
0	22527	12.6	4
0	22528	12.6	4
0	22529	12.6	4
0	22530	12.6	4
0	22531	12.6	4
0	22533	12.6	4
0	22534	12.6	4
0	22535	12.6	4
0	22536	12.6	4
0	22537	12.6	4
0	22588	12.65	4
0	22589	12.65	4
0	22590	12.65	4
0	22591	12.65	4
0	22592	12.65	4
0	22782	12.7	4
0	22783	12.7	4
0	22784	12.7	4
0	22785	12.7	4
0	22786	12.7	4
0	22788	12.7	4
0	22789	12.7	4
0	22790	12.7	4
0	22791	12.7	4
0	22792	12.7	4
0	22923	12.75	4
0	22924	12.75	4
0	22925	12.75	4
0	22926	12.75	4
0	22927	12.75	4
0	23014	12.8	4
0	23015	12.8	4
0	23016	12.8	4
0	23017	12.8	4
0	23018	12.8	4
0	23020	12.8	4
0	23021	12.8	4
0	23022	12.8	4
0	23023	12.8	4
0	23024	12.8	4
0	23080	12.85	4
0	23081	12.85	4
0	23082	12.85	4
0	23083	12.85	4
0	23084	12.85	4
0	23125	12.9	4
0	23126	12.9	4
0	23127	12.9	4
0	23128	12.9	4
0	23129	12.9	4
0	23131	12.9	4
0	23132	12.9	4
0	23133	12.9	4
0	23134	12.9	4
0	23135	12.9	4
0	23186	12.95	4
0	23187	12.95	4
0	23188	12.95	4
0	23189	12.95	4
0	23190	12.95	4
0	23254	13	4
0	23255	13	4
0	23256	13	4
0	23257	13	4
0	23258	13	4
0	23260	13	4
0	23261	13	4
0	23262	13	4
0	23263	13	4
0	23264	13	4
0	23315	13.05	4
0	23316	13.05	4
0	23317	13.05	4
0	23318	13.05	4
0	23319	13.05	4
0	23365	13.1	4
0	23366	13.1	4
0	23367	13.1	4
0	23368	13.1	4
0	23369	13.1	4
0	23371	13.1	4
0	23372	13.1	4
0	23373	13.1	4
0	23374	13.1	4
0	23375	13.1	4
0	23478	13.15	4
0	23479	13.15	4
0	23480	13.15	4
0	23481	13.15	4
0	23482	13.15	4
0	23523	13.2	4
0	23524	13.2	4
0	23525	13.2	4
0	23526	13.2	4
0	23527	13.2	4
0	23529	13.2	4
0	23530	13.2	4
0	23531	13.2	4
0	23532	13.2	4
0	23533	13.2	4
0	23711	13.25	4
0	23712	13.25	4
0	23713	13.25	4
0	23714	13.25	4
0	23715	13.25	4
0	23943	13.3	4
0	23944	13.3	4
0	23945	13.3	4
0	23946	13.3	4
0	23947	13.3	4
0	23949	13.3	4
0	23950	13.3	4
0	23951	13.3	4
0	23952	13.3	4
0	23953	13.3	4
0	24044	13.35	4
0	24045	13.35	4
0	24046	13.35	4
0	24047	13.35	4
0	24048	13.35	4
0	24089	13.4	4
0	24090	13.4	4
0	24091	13.4	4
0	24092	13.4	4
0	24093	13.4	4
0	24095	13.4	4
0	24096	13.4	4
0	24097	13.4	4
0	24098	13.4	4
0	24099	13.4	4
0	24173	13.45	4
0	24174	13.45	4
0	24175	13.45	4
0	24176	13.45	4
0	24177	13.45	4
0	24218	13.5	4
0	24219	13.5	4
0	24220	13.5	4
0	24221	13.5	4
0	24222	13.5	4
0	24224	13.5	4
0	24225	13.5	4
0	24226	13.5	4
0	24227	13.5	4
0	24228	13.5	4
0	24302	13.55	4
0	24303	13.55	4
0	24304	13.55	4
0	24305	13.55	4
0	24306	13.55	4
0	24347	13.6	4
0	24348	13.6	4
0	24349	13.6	4
0	24350	13.6	4
0	24351	13.6	4
0	24353	13.6	4
0	24354	13.6	4
0	24355	13.6	4
0	24356	13.6	4
0	24357	13.6	4
0	24408	13.65	4
0	24409	13.65	4
0	24410	13.65	4
0	24411	13.65	4
0	24412	13.65	4
0	24493	13.7	4
0	24494	13.7	4
0	24495	13.7	4
0	24496	13.7	4
0	24497	13.7	4
0	24499	13.7	4
0	24500	13.7	4
0	24501	13.7	4
0	24502	13.7	4
0	24503	13.7	4
0	24554	13.75	4
0	24555	13.75	4
0	24556	13.75	4
0	24557	13.75	4
0	24558	13.75	4
0	24726	13.8	4
0	24727	13.8	4
0	24728	13.8	4
0	24729	13.8	4
0	24730	13.8	4
0	24732	13.8	4
0	24733	13.8	4
0	24734	13.8	4
0	24735	13.8	4
0	24736	13.8	4
0	24890	13.85	4
0	24891	13.85	4
0	24892	13.85	4
0	24893	13.85	4
0	24894	13.85	4
0	24981	13.9	4
0	24982	13.9	4
0	24983	13.9	4
0	24984	13.9	4
0	24985	13.9	4
0	24987	13.9	4
0	24988	13.9	4
0	24989	13.9	4
0	24990	13.9	4
0	24991	13.9	4
0	25042	13.95	4
0	25043	13.95	4
0	25044	13.95	4
0	25045	13.95	4
0	25046	13.95	4
0	25110	14	4
0	25111	14	4
0	25112	14	4
0	25113	14	4
0	25114	14	4
0	25116	14	4
0	25117	14	4
0	25118	14	4
0	25119	14	4
0	25120	14	4
0	25171	14.05	4
0	25172	14.05	4
0	25173	14.05	4
0	25174	14.05	4
0	25175	14.05	4
0	25244	14.1	4
0	25245	14.1	4
0	25246	14.1	4
0	25247	14.1	4
0	25248	14.1	4
0	25250	14.1	4
0	25251	14.1	4
0	25252	14.1	4
0	25253	14.1	4
0	25254	14.1	4
0	25334	14.15	4
0	25335	14.15	4
0	25336	14.15	4
0	25337	14.15	4
0	25338	14.15	4
0	25379	14.2	4
0	25380	14.2	4
0	25381	14.2	4
0	25382	14.2	4
0	25383	14.2	4
0	25385	14.2	4
0	25386	14.2	4
0	25387	14.2	4
0	25388	14.2	4
0	25389	14.2	4
0	25486	14.25	4
0	25487	14.25	4
0	25488	14.25	4
0	25489	14.25	4
0	25490	14.25	4
0	25577	14.3	4
0	25578	14.3	4
0	25579	14.3	4
0	25580	14.3	4
0	25581	14.3	4
0	25583	14.3	4
0	25584	14.3	4
0	25585	14.3	4
0	25586	14.3	4
0	25587	14.3	4
0	25765	14.35	4
0	25766	14.35	4
0	25767	14.35	4
0	25768	14.35	4
0	25769	14.35	4
0	25997	14.4	4
0	25998	14.4	4
0	25999	14.4	4
0	26000	14.4	4
0	26001	14.4	4
0	26003	14.4	4
0	26004	14.4	4
0	26005	14.4	4
0	26006	14.4	4
0	26007	14.4	4
0	26121	14.45	4
0	26122	14.45	4
0	26123	14.45	4
0	26124	14.45	4
0	26125	14.45	4
0	26166	14.5	4
0	26167	14.5	4
0	26168	14.5	4
0	26169	14.5	4
0	26170	14.5	4
0	26172	14.5	4
0	26173	14.5	4
0	26174	14.5	4
0	26175	14.5	4
0	26176	14.5	4
0	26250	14.55	4
0	26251	14.55	4
0	26252	14.55	4
0	26253	14.55	4
0	26254	14.55	4
0	26295	14.6	4
0	26296	14.6	4
0	26297	14.6	4
0	26298	14.6	4
0	26299	14.6	4
0	26301	14.6	4
0	26302	14.6	4
0	26303	14.6	4
0	26304	14.6	4
0	26305	14.6	4
0	26379	14.65	4
0	26380	14.65	4
0	26381	14.65	4
0	26382	14.65	4
0	26383	14.65	4
0	26429	14.7	4
0	26430	14.7	4
0	26431	14.7	4
0	26432	14.7	4
0	26433	14.7	4
0	26435	14.7	4
0	26436	14.7	4
0	26437	14.7	4
0	26438	14.7	4
0	26439	14.7	4
0	26490	14.75	4
0	26491	14.75	4
0	26492	14.75	4
0	26493	14.75	4
0	26494	14.75	4
0	26581	14.8	4
0	26582	14.8	4
0	26583	14.8	4
0	26584	14.8	4
0	26585	14.8	4
0	26587	14.8	4
0	26588	14.8	4
0	26589	14.8	4
0	26590	14.8	4
0	26591	14.8	4
0	26665	14.85	4
0	26666	14.85	4
0	26667	14.85	4
0	26668	14.85	4
0	26669	14.85	4
0	26837	14.9	4
0	26838	14.9	4
0	26839	14.9	4
0	26840	14.9	4
0	26841	14.9	4
0	26843	14.9	4
0	26844	14.9	4
0	26845	14.9	4
0	26846	14.9	4
0	26847	14.9	4
0	26983	14.95	4
0	26984	14.95	4
0	26985	14.95	4
0	26986	14.95	4
0	26987	14.95	4
0	27079	15	4
0	27080	15	4
0	27081	15	4
0	27082	15	4
0	27083	15	4
0	27085	15	4
0	27086	15	4
0	27087	15	4
0	27088	15	4
0	27089	15	4
0	27140	15.05	4
0	27141	15.05	4
0	27142	15.05	4
0	27143	15.05	4
0	27144	15.05	4
0	27213	15.1	4
0	27214	15.1	4
0	27215	15.1	4
0	27216	15.1	4
0	27217	15.1	4
0	27219	15.1	4
0	27220	15.1	4
0	27221	15.1	4
0	27222	15.1	4
0	27223	15.1	4
0	27280	15.15	4
0	27281	15.15	4
0	27282	15.15	4
0	27283	15.15	4
0	27284	15.15	4
0	27325	15.2	4
0	27326	15.2	4
0	27327	15.2	4
0	27328	15.2	4
0	27329	15.2	4
0	27331	15.2	4
0	27332	15.2	4
0	27333	15.2	4
0	27334	15.2	4
0	27335	15.2	4
0	27386	15.25	4
0	27387	15.25	4
0	27388	15.25	4
0	27389	15.25	4
0	27390	15.25	4
0	27431	15.3	4
0	27432	15.3	4
0	27433	15.3	4
0	27434	15.3	4
0	27435	15.3	4
0	27437	15.3	4
0	27438	15.3	4
0	27439	15.3	4
0	27440	15.3	4
0	27441	15.3	4
0	27515	15.35	4
0	27516	15.35	4
0	27517	15.35	4
0	27518	15.35	4
0	27519	15.35	4
0	27583	15.4	4
0	27584	15.4	4
0	27585	15.4	4
0	27586	15.4	4
0	27587	15.4	4
0	27589	15.4	4
0	27590	15.4	4
0	27591	15.4	4
0	27592	15.4	4
0	27593	15.4	4
0	27771	15.45	4
0	27772	15.45	4
0	27773	15.45	4
0	27774	15.45	4
0	27775	15.45	4
0	27980	15.5	4
0	27981	15.5	4
0	27982	15.5	4
0	27983	15.5	4
0	27984	15.5	4
0	27986	15.5	4
0	27987	15.5	4
0	27988	15.5	4
0	27989	15.5	4
0	27990	15.5	4
0	28087	15.55	4
0	28088	15.55	4
0	28089	15.55	4
0	28090	15.55	4
0	28091	15.55	4
0	28132	15.6	4
0	28133	15.6	4
0	28134	15.6	4
0	28135	15.6	4
0	28136	15.6	4
0	28138	15.6	4
0	28139	15.6	4
0	28140	15.6	4
0	28141	15.6	4
0	28142	15.6	4
0	28216	15.65	4
0	28217	15.65	4
0	28218	15.65	4
0	28219	15.65	4
0	28220	15.65	4
0	28261	15.7	4
0	28262	15.7	4
0	28263	15.7	4
0	28264	15.7	4
0	28265	15.7	4
0	28267	15.7	4
0	28268	15.7	4
0	28269	15.7	4
0	28270	15.7	4
0	28271	15.7	4
0	28322	15.75	4
0	28323	15.75	4
0	28324	15.75	4
0	28325	15.75	4
0	28326	15.75	4
0	28367	15.8	4
0	28368	15.8	4
0	28369	15.8	4
0	28370	15.8	4
0	28371	15.8	4
0	28373	15.8	4
0	28374	15.8	4
0	28375	15.8	4
0	28376	15.8	4
0	28377	15.8	4
0	28428	15.85	4
0	28429	15.85	4
0	28430	15.85	4
0	28431	15.85	4
0	28432	15.85	4
0	28501	15.9	4
0	28502	15.9	4
0	28503	15.9	4
0	28504	15.9	4
0	28505	15.9	4
0	28507	15.9	4
0	28508	15.9	4
0	28509	15.9	4
0	28510	15.9	4
0	28511	15.9	4
0	28585	15.95	4
0	28586	15.95	4
0	28587	15.95	4
0	28588	15.95	4
0	28589	15.95	4
0	28757	16	4
0	28758	16	4
0	28759	16	4
0	28760	16	4
0	28761	16	4
0	28763	16	4
0	28764	16	4
0	28765	16	4
0	28766	16	4
0	28767	16	4
0	28898	16.05	4
0	28899	16.05	4
0	28900	16.05	4
0	28901	16.05	4
0	28902	16.05	4
0	28976	16.1	4
0	28977	16.1	4
0	28978	16.1	4
0	28979	16.1	4
0	28980	16.1	4
0	28982	16.1	4
0	28983	16.1	4
0	28984	16.1	4
0	28985	16.1	4
0	28986	16.1	4
0	29043	16.15	4
0	29044	16.15	4
0	29045	16.15	4
0	29046	16.15	4
0	29047	16.15	4
0	29111	16.2	4
0	29112	16.2	4
0	29113	16.2	4
0	29114	16.2	4
0	29115	16.2	4
0	29117	16.2	4
0	29118	16.2	4
0	29119	16.2	4
0	29120	16.2	4
0	29121	16.2	4
0	29195	16.25	4
0	29196	16.25	4
0	29197	16.25	4
0	29198	16.25	4
0	29199	16.25	4
0	29263	16.3	4
0	29264	16.3	4
0	29265	16.3	4
0	29266	16.3	4
0	29267	16.3	4
0	29269	16.3	4
0	29270	16.3	4
0	29271	16.3	4
0	29272	16.3	4
0	29273	16.3	4
0	29347	16.35	4
0	29348	16.35	4
0	29349	16.35	4
0	29350	16.35	4
0	29351	16.35	4
0	29415	16.4	4
0	29416	16.4	4
0	29417	16.4	4
0	29418	16.4	4
0	29419	16.4	4
0	29421	16.4	4
0	29422	16.4	4
0	29423	16.4	4
0	29424	16.4	4
0	29425	16.4	4
0	29522	16.45	4
0	29523	16.45	4
0	29524	16.45	4
0	29525	16.45	4
0	29526	16.45	4
0	29590	16.5	4
0	29591	16.5	4
0	29592	16.5	4
0	29593	16.5	4
0	29594	16.5	4
0	29596	16.5	4
0	29597	16.5	4
0	29598	16.5	4
0	29599	16.5	4
0	29600	16.5	4
0	29778	16.55	4
0	29779	16.55	4
0	29780	16.55	4
0	29781	16.55	4
0	29782	16.55	4
0	29969	16.6	4
0	29970	16.6	4
0	29971	16.6	4
0	29972	16.6	4
0	29973	16.6	4
0	29975	16.6	4
0	29976	16.6	4
0	29977	16.6	4
0	29978	16.6	4
0	29979	16.6	4
0	30053	16.65	4
0	30054	16.65	4
0	30055	16.65	4
0	30056	16.65	4
0	30057	16.65	4
0	30098	16.7	4
0	30099	16.7	4
0	30100	16.7	4
0	30101	16.7	4
0	30102	16.7	4
0	30104	16.7	4
0	30105	16.7	4
0	30106	16.7	4
0	30107	16.7	4
0	30108	16.7	4
0	30159	16.75	4
0	30160	16.75	4
0	30161	16.75	4
0	30162	16.75	4
0	30163	16.75	4
0	30227	16.8	4
0	30228	16.8	4
0	30229	16.8	4
0	30230	16.8	4
0	30231	16.8	4
0	30233	16.8	4
0	30234	16.8	4
0	30235	16.8	4
0	30236	16.8	4
0	30237	16.8	4
0	30305	16.85	4
0	30306	16.85	4
0	30307	16.85	4
0	30308	16.85	4
0	30309	16.85	4
0	30373	16.9	4
0	30374	16.9	4
0	30375	16.9	4
0	30376	16.9	4
0	30377	16.9	4
0	30379	16.9	4
0	30380	16.9	4
0	30381	16.9	4
0	30382	16.9	4
0	30383	16.9	4
0	30457	16.95	4
0	30458	16.95	4
0	30459	16.95	4
0	30460	16.95	4
0	30461	16.95	4
0	30535	17	4
0	30536	17	4
0	30537	17	4
0	30538	17	4
0	30539	17	4
0	30541	17	4
0	30542	17	4
0	30543	17	4
0	30544	17	4
0	30545	17	4
0	30619	17.05	4
0	30620	17.05	4
0	30621	17.05	4
0	30622	17.05	4
0	30623	17.05	4
0	30796	17.1	4
0	30797	17.1	4
0	30798	17.1	4
0	30799	17.1	4
0	30800	17.1	4
0	30802	17.1	4
0	30803	17.1	4
0	30804	17.1	4
0	30805	17.1	4
0	30806	17.1	4
0	31004	17.15	4
0	31005	17.15	4
0	31006	17.15	4
0	31007	17.15	4
0	31008	17.15	4
0	31072	17.2	4
0	31073	17.2	4
0	31074	17.2	4
0	31075	17.2	4
0	31076	17.2	4
0	31078	17.2	4
0	31079	17.2	4
0	31080	17.2	4
0	31081	17.2	4
0	31082	17.2	4
0	31133	17.25	4
0	31134	17.25	4
0	31135	17.25	4
0	31136	17.25	4
0	31137	17.25	4
0	31178	17.3	4
0	31179	17.3	4
0	31180	17.3	4
0	31181	17.3	4
0	31182	17.3	4
0	31184	17.3	4
0	31185	17.3	4
0	31186	17.3	4
0	31187	17.3	4
0	31188	17.3	4
0	31262	17.35	4
0	31263	17.35	4
0	31264	17.35	4
0	31265	17.35	4
0	31266	17.35	4
0	31307	17.4	4
0	31308	17.4	4
0	31309	17.4	4
0	31310	17.4	4
0	31311	17.4	4
0	31313	17.4	4
0	31314	17.4	4
0	31315	17.4	4
0	31316	17.4	4
0	31317	17.4	4
0	31391	17.45	4
0	31392	17.45	4
0	31393	17.45	4
0	31394	17.45	4
0	31395	17.45	4
0	31459	17.5	4
0	31460	17.5	4
0	31461	17.5	4
0	31462	17.5	4
0	31463	17.5	4
0	31465	17.5	4
0	31466	17.5	4
0	31467	17.5	4
0	31468	17.5	4
0	31469	17.5	4
0	31560	17.55	4
0	31561	17.55	4
0	31562	17.55	4
0	31563	17.55	4
0	31564	17.55	4
0	31628	17.6	4
0	31629	17.6	4
0	31630	17.6	4
0	31631	17.6	4
0	31632	17.6	4
0	31634	17.6	4
0	31635	17.6	4
0	31636	17.6	4
0	31637	17.6	4
0	31638	17.6	4
0	31816	17.65	4
0	31817	17.65	4
0	31818	17.65	4
0	31819	17.65	4
0	31820	17.65	4
0	31923	17.7	4
0	31924	17.7	4
0	31925	17.7	4
0	31926	17.7	4
0	31927	17.7	4
0	31929	17.7	4
0	31930	17.7	4
0	31931	17.7	4
0	31932	17.7	4
0	31933	17.7	4
0	32007	17.75	4
0	32008	17.75	4
0	32009	17.75	4
0	32010	17.75	4
0	32011	17.75	4
0	32069	17.8	4
0	32070	17.8	4
0	32071	17.8	4
0	32072	17.8	4
0	32073	17.8	4
0	32075	17.8	4
0	32076	17.8	4
0	32077	17.8	4
0	32078	17.8	4
0	32079	17.8	4
0	32130	17.85	4
0	32131	17.85	4
0	32132	17.85	4
0	32133	17.85	4
0	32134	17.85	4
0	32198	17.9	4
0	32199	17.9	4
0	32200	17.9	4
0	32201	17.9	4
0	32202	17.9	4
0	32204	17.9	4
0	32205	17.9	4
0	32206	17.9	4
0	32207	17.9	4
0	32208	17.9	4
0	32282	17.95	4
0	32283	17.95	4
0	32284	17.95	4
0	32285	17.95	4
0	32286	17.95	4
0	32350	18	4
0	32351	18	4
0	32352	18	4
0	32353	18	4
0	32354	18	4
0	32356	18	4
0	32357	18	4
0	32358	18	4
0	32359	18	4
0	32360	18	4
0	32434	18.05	4
0	32435	18.05	4
0	32436	18.05	4
0	32437	18.05	4
0	32438	18.05	4
0	32507	18.1	4
0	32508	18.1	4
0	32509	18.1	4
0	32510	18.1	4
0	32511	18.1	4
0	32513	18.1	4
0	32514	18.1	4
0	32515	18.1	4
0	32516	18.1	4
0	32517	18.1	4
0	32597	18.15	4
0	32598	18.15	4
0	32599	18.15	4
0	32600	18.15	4
0	32601	18.15	4
0	32769	18.2	4
0	32770	18.2	4
0	32771	18.2	4
0	32772	18.2	4
0	32773	18.2	4
0	32775	18.2	4
0	32776	18.2	4
0	32777	18.2	4
0	32778	18.2	4
0	32779	18.2	4
0	32971	18.25	4
0	32972	18.25	4
0	32973	18.25	4
0	32974	18.25	4
0	32975	18.25	4
0	33039	18.3	4
0	33040	18.3	4
0	33041	18.3	4
0	33042	18.3	4
0	33043	18.3	4
0	33045	18.3	4
0	33046	18.3	4
0	33047	18.3	4
0	33048	18.3	4
0	33049	18.3	4
0	33123	18.35	4
0	33124	18.35	4
0	33125	18.35	4
0	33126	18.35	4
0	33127	18.35	4
0	33168	18.4	4
0	33169	18.4	4
0	33170	18.4	4
0	33171	18.4	4
0	33172	18.4	4
0	33174	18.4	4
0	33175	18.4	4
0	33176	18.4	4
0	33177	18.4	4
0	33178	18.4	4
0	33275	18.45	4
0	33276	18.45	4
0	33277	18.45	4
0	33278	18.45	4
0	33279	18.45	4
0	33343	18.5	4
0	33344	18.5	4
0	33345	18.5	4
0	33346	18.5	4
0	33347	18.5	4
0	33349	18.5	4
0	33350	18.5	4
0	33351	18.5	4
0	33352	18.5	4
0	33353	18.5	4
0	33427	18.55	4
0	33428	18.55	4
0	33429	18.55	4
0	33430	18.55	4
0	33431	18.55	4
0	33500	18.6	4
0	33501	18.6	4
0	33502	18.6	4
0	33503	18.6	4
0	33504	18.6	4
0	33506	18.6	4
0	33507	18.6	4
0	33508	18.6	4
0	33509	18.6	4
0	33510	18.6	4
0	33566	18.65	4
0	33567	18.65	4
0	33568	18.65	4
0	33569	18.65	4
0	33570	18.65	4
0	33634	18.7	4
0	33635	18.7	4
0	33636	18.7	4
0	33637	18.7	4
0	33638	18.7	4
0	33640	18.7	4
0	33641	18.7	4
0	33642	18.7	4
0	33643	18.7	4
0	33644	18.7	4
0	33822	18.75	4
0	33823	18.75	4
0	33824	18.75	4
0	33825	18.75	4
0	33826	18.75	4
0	33924	18.8	4
0	33925	18.8	4
0	33926	18.8	4
0	33927	18.8	4
0	33928	18.8	4
0	33930	18.8	4
0	33931	18.8	4
0	33932	18.8	4
0	33933	18.8	4
0	33934	18.8	4
0	33985	18.85	4
0	33986	18.85	4
0	33987	18.85	4
0	33988	18.85	4
0	33989	18.85	4
0	34053	18.9	4
0	34054	18.9	4
0	34055	18.9	4
0	34056	18.9	4
0	34057	18.9	4
0	34059	18.9	4
0	34060	18.9	4
0	34061	18.9	4
0	34062	18.9	4
0	34063	18.9	4
0	34114	18.95	4
0	34115	18.95	4
0	34116	18.95	4
0	34117	18.95	4
0	34118	18.95	4
0	34182	19	4
0	34183	19	4
0	34184	19	4
0	34185	19	4
0	34186	19	4
0	34188	19	4
0	34189	19	4
0	34190	19	4
0	34191	19	4
0	34192	19	4
0	34266	19.05	4
0	34267	19.05	4
0	34268	19.05	4
0	34269	19.05	4
0	34270	19.05	4
0	34339	19.1	4
0	34340	19.1	4
0	34341	19.1	4
0	34342	19.1	4
0	34343	19.1	4
0	34345	19.1	4
0	34346	19.1	4
0	34347	19.1	4
0	34348	19.1	4
0	34349	19.1	4
0	34452	19.15	4
0	34453	19.15	4
0	34454	19.15	4
0	34455	19.15	4
0	34456	19.15	4
0	34497	19.2	4
0	34498	19.2	4
0	34499	19.2	4
0	34500	19.2	4
0	34501	19.2	4
0	34503	19.2	4
0	34504	19.2	4
0	34505	19.2	4
0	34506	19.2	4
0	34507	19.2	4
0	34581	19.25	4
0	34582	19.25	4
0	34583	19.25	4
0	34584	19.25	4
0	34585	19.25	4
0	34776	19.3	4
0	34777	19.3	4
0	34778	19.3	4
0	34779	19.3	4
0	34780	19.3	4
0	34782	19.3	4
0	34783	19.3	4
0	34784	19.3	4
0	34785	19.3	4
0	34786	19.3	4
0	34978	19.35	4
0	34979	19.35	4
0	34980	19.35	4
0	34981	19.35	4
0	34982	19.35	4
0	35023	19.4	4
0	35024	19.4	4
0	35025	19.4	4
0	35026	19.4	4
0	35027	19.4	4
0	35029	19.4	4
0	35030	19.4	4
0	35031	19.4	4
0	35032	19.4	4
0	35033	19.4	4
0	35107	19.45	4
0	35108	19.45	4
0	35109	19.45	4
0	35110	19.45	4
0	35111	19.45	4
0	35152	19.5	4
0	35153	19.5	4
0	35154	19.5	4
0	35155	19.5	4
0	35156	19.5	4
0	35158	19.5	4
0	35159	19.5	4
0	35160	19.5	4
0	35161	19.5	4
0	35162	19.5	4
0	35236	19.55	4
0	35237	19.55	4
0	35238	19.55	4
0	35239	19.55	4
0	35240	19.55	4
0	35304	19.6	4
0	35305	19.6	4
0	35306	19.6	4
0	35307	19.6	4
0	35308	19.6	4
0	35310	19.6	4
0	35311	19.6	4
0	35312	19.6	4
0	35313	19.6	4
0	35314	19.6	4
0	35388	19.65	4
0	35389	19.65	4
0	35390	19.65	4
0	35391	19.65	4
0	35392	19.65	4
0	35473	19.7	4
0	35474	19.7	4
0	35475	19.7	4
0	35476	19.7	4
0	35477	19.7	4
0	35479	19.7	4
0	35480	19.7	4
0	35481	19.7	4
0	35482	19.7	4
0	35483	19.7	4
0	35534	19.75	4
0	35535	19.75	4
0	35536	19.75	4
0	35537	19.75	4
0	35538	19.75	4
0	35596	19.8	4
0	35597	19.8	4
0	35598	19.8	4
0	35599	19.8	4
0	35600	19.8	4
0	35602	19.8	4
0	35603	19.8	4
0	35604	19.8	4
0	35605	19.8	4
0	35606	19.8	4
0	35807	19.85	4
0	35808	19.85	4
0	35809	19.85	4
0	35810	19.85	4
0	35811	19.85	4
0	35932	19.9	4
0	35933	19.9	4
0	35934	19.9	4
0	35935	19.9	4
0	35936	19.9	4
0	35938	19.9	4
0	35939	19.9	4
0	35940	19.9	4
0	35941	19.9	4
0	35942	19.9	4
0	35993	19.95	4
0	35994	19.95	4
0	35995	19.95	4
0	35996	19.95	4
0	35997	19.95	4
0	36061	20	4
0	36062	20	4
0	36063	20	4
0	36064	20	4
0	36065	20	4
0	36067	20	4
0	36068	20	4
0	36069	20	4
0	36070	20	4
0	36071	20	4
0	36168	20.05	4
0	36169	20.05	4
0	36170	20.05	4
0	36171	20.05	4
0	36172	20.05	4
0	36241	20.1	4
0	36242	20.1	4
0	36243	20.1	4
0	36244	20.1	4
0	36245	20.1	4
0	36247	20.1	4
0	36248	20.1	4
0	36249	20.1	4
0	36250	20.1	4
0	36251	20.1	4
0	36331	20.15	4
0	36332	20.15	4
0	36333	20.15	4
0	36334	20.15	4
0	36335	20.15	4
0	36416	20.2	4
0	36417	20.2	4
0	36418	20.2	4
0	36419	20.2	4
0	36420	20.2	4
0	36422	20.2	4
0	36423	20.2	4
0	36424	20.2	4
0	36425	20.2	4
0	36426	20.2	4
0	36517	20.25	4
0	36518	20.25	4
0	36519	20.25	4
0	36520	20.25	4
0	36521	20.25	4
0	36562	20.3	4
0	36563	20.3	4
0	36564	20.3	4
0	36565	20.3	4
0	36566	20.3	4
0	36568	20.3	4
0	36569	20.3	4
0	36570	20.3	4
0	36571	20.3	4
0	36572	20.3	4
0	36646	20.35	4
0	36647	20.35	4
0	36648	20.35	4
0	36649	20.35	4
0	36650	20.35	4
0	36841	20.4	4
0	36842	20.4	4
0	36843	20.4	4
0	36844	20.4	4
0	36845	20.4	4
0	36847	20.4	4
0	36848	20.4	4
0	36849	20.4	4
0	36850	20.4	4
0	36851	20.4	4
0	37048	20.45	4
0	37049	20.45	4
0	37050	20.45	4
0	37051	20.45	4
0	37052	20.45	4
0	37093	20.5	4
0	37094	20.5	4
0	37095	20.5	4
0	37096	20.5	4
0	37097	20.5	4
0	37099	20.5	4
0	37100	20.5	4
0	37101	20.5	4
0	37102	20.5	4
0	37103	20.5	4
0	37177	20.55	4
0	37178	20.55	4
0	37179	20.55	4
0	37180	20.55	4
0	37181	20.55	4
0	37227	20.6	4
0	37228	20.6	4
0	37229	20.6	4
0	37230	20.6	4
0	37231	20.6	4
0	37233	20.6	4
0	37234	20.6	4
0	37235	20.6	4
0	37236	20.6	4
0	37237	20.6	4
0	37311	20.65	4
0	37312	20.65	4
0	37313	20.65	4
0	37314	20.65	4
0	37315	20.65	4
0	37379	20.7	4
0	37380	20.7	4
0	37381	20.7	4
0	37382	20.7	4
0	37383	20.7	4
0	37385	20.7	4
0	37386	20.7	4
0	37387	20.7	4
0	37388	20.7	4
0	37389	20.7	4
0	37463	20.75	4
0	37464	20.75	4
0	37465	20.75	4
0	37466	20.75	4
0	37467	20.75	4
0	37554	20.8	4
0	37555	20.8	4
0	37556	20.8	4
0	37557	20.8	4
0	37558	20.8	4
0	37560	20.8	4
0	37561	20.8	4
0	37562	20.8	4
0	37563	20.8	4
0	37564	20.8	4
0	37615	20.85	4
0	37616	20.85	4
0	37617	20.85	4
0	37618	20.85	4
0	37619	20.85	4
0	37683	20.9	4
0	37684	20.9	4
0	37685	20.9	4
0	37686	20.9	4
0	37687	20.9	4
0	37689	20.9	4
0	37690	20.9	4
0	37691	20.9	4
0	37692	20.9	4
0	37693	20.9	4
0	37894	20.95	4
0	37895	20.95	4
0	37896	20.95	4
0	37897	20.95	4
0	37898	20.95	4
0	37996	21	4
0	37997	21	4
0	37998	21	4
0	37999	21	4
0	38000	21	4
0	38002	21	4
0	38003	21	4
0	38004	21	4
0	38005	21	4
0	38006	21	4
0	38057	21.05	4
0	38058	21.05	4
0	38059	21.05	4
0	38060	21.05	4
0	38061	21.05	4
0	38130	21.1	4
0	38131	21.1	4
0	38132	21.1	4
0	38133	21.1	4
0	38134	21.1	4
0	38136	21.1	4
0	38137	21.1	4
0	38138	21.1	4
0	38139	21.1	4
0	38140	21.1	4
0	38197	21.15	4
0	38198	21.15	4
0	38199	21.15	4
0	38200	21.15	4
0	38201	21.15	4
0	38265	21.2	4
0	38266	21.2	4
0	38267	21.2	4
0	38268	21.2	4
0	38269	21.2	4
0	38271	21.2	4
0	38272	21.2	4
0	38273	21.2	4
0	38274	21.2	4
0	38275	21.2	4
0	38349	21.25	4
0	38350	21.25	4
0	38351	21.25	4
0	38352	21.25	4
0	38353	21.25	4
0	38411	21.3	4
0	38412	21.3	4
0	38413	21.3	4
0	38414	21.3	4
0	38415	21.3	4
0	38417	21.3	4
0	38418	21.3	4
0	38419	21.3	4
0	38420	21.3	4
0	38421	21.3	4
0	38518	21.35	4
0	38519	21.35	4
0	38520	21.35	4
0	38521	21.35	4
0	38522	21.35	4
0	38563	21.4	4
0	38564	21.4	4
0	38565	21.4	4
0	38566	21.4	4
0	38567	21.4	4
0	38569	21.4	4
0	38570	21.4	4
0	38571	21.4	4
0	38572	21.4	4
0	38573	21.4	4
0	38647	21.45	4
0	38648	21.45	4
0	38649	21.45	4
0	38650	21.45	4
0	38651	21.45	4
0	38818	21.5	4
0	38819	21.5	4
0	38820	21.5	4
0	38821	21.5	4
0	38822	21.5	4
0	38824	21.5	4
0	38825	21.5	4
0	38826	21.5	4
0	38827	21.5	4
0	38828	21.5	4
0	39020	21.55	4
0	39021	21.55	4
0	39022	21.55	4
0	39023	21.55	4
0	39024	21.55	4
0	39065	21.6	4
0	39066	21.6	4
0	39067	21.6	4
0	39068	21.6	4
0	39069	21.6	4
0	39071	21.6	4
0	39072	21.6	4
0	39073	21.6	4
0	39074	21.6	4
0	39075	21.6	4
0	39172	21.65	4
0	39173	21.65	4
0	39174	21.65	4
0	39175	21.65	4
0	39176	21.65	4
0	39217	21.7	4
0	39218	21.7	4
0	39219	21.7	4
0	39220	21.7	4
0	39221	21.7	4
0	39223	21.7	4
0	39224	21.7	4
0	39225	21.7	4
0	39226	21.7	4
0	39227	21.7	4
0	39301	21.75	4
0	39302	21.75	4
0	39303	21.75	4
0	39304	21.75	4
0	39305	21.75	4
0	39415	21.8	4
0	39416	21.8	4
0	39417	21.8	4
0	39418	21.8	4
0	39419	21.8	4
0	39421	21.8	4
0	39422	21.8	4
0	39423	21.8	4
0	39424	21.8	4
0	39425	21.8	4
0	39499	21.85	4
0	39500	21.85	4
0	39501	21.85	4
0	39502	21.85	4
0	39503	21.85	4
0	39567	21.9	4
0	39568	21.9	4
0	39569	21.9	4
0	39570	21.9	4
0	39571	21.9	4
0	39573	21.9	4
0	39574	21.9	4
0	39575	21.9	4
0	39576	21.9	4
0	39577	21.9	4
0	39651	21.95	4
0	39652	21.95	4
0	39653	21.95	4
0	39654	21.95	4
0	39655	21.95	4
0	39724	22	4
0	39725	22	4
0	39726	22	4
0	39727	22	4
0	39728	22	4
0	39730	22	4
0	39731	22	4
0	39732	22	4
0	39733	22	4
0	39734	22	4
0	39912	22.05	4
0	39913	22.05	4
0	39914	22.05	4
0	39915	22.05	4
0	39916	22.05	4
0	40019	22.1	4
0	40020	22.1	4
0	40021	22.1	4
0	40022	22.1	4
0	40023	22.1	4
0	40025	22.1	4
0	40026	22.1	4
0	40027	22.1	4
0	40028	22.1	4
0	40029	22.1	4
0	40086	22.15	4
0	40087	22.15	4
0	40088	22.15	4
0	40089	22.15	4
0	40090	22.15	4
0	40177	22.2	4
0	40178	22.2	4
0	40179	22.2	4
0	40180	22.2	4
0	40181	22.2	4
0	40183	22.2	4
0	40184	22.2	4
0	40185	22.2	4
0	40186	22.2	4
0	40187	22.2	4
0	40238	22.25	4
0	40239	22.25	4
0	40240	22.25	4
0	40241	22.25	4
0	40242	22.25	4
0	40306	22.3	4
0	40307	22.3	4
0	40308	22.3	4
0	40309	22.3	4
0	40310	22.3	4
0	40312	22.3	4
0	40313	22.3	4
0	40314	22.3	4
0	40315	22.3	4
0	40316	22.3	4
0	40418	22.35	4
0	40419	22.35	4
0	40420	22.35	4
0	40421	22.35	4
0	40422	22.35	4
0	40486	22.4	4
0	40487	22.4	4
0	40488	22.4	4
0	40489	22.4	4
0	40490	22.4	4
0	40492	22.4	4
0	40493	22.4	4
0	40494	22.4	4
0	40495	22.4	4
0	40496	22.4	4
0	40552	22.45	4
0	40553	22.45	4
0	40554	22.45	4
0	40555	22.45	4
0	40556	22.45	4
0	40602	22.5	4
0	40603	22.5	4
0	40604	22.5	4
0	40605	22.5	4
0	40606	22.5	4
0	40608	22.5	4
0	40609	22.5	4
0	40610	22.5	4
0	40611	22.5	4
0	40612	22.5	4
0	40686	22.55	4
0	40687	22.55	4
0	40688	22.55	4
0	40689	22.55	4
0	40690	22.55	4
0	40843	22.6	4
0	40844	22.6	4
0	40845	22.6	4
0	40846	22.6	4
0	40847	22.6	4
0	40849	22.6	4
0	40850	22.6	4
0	40851	22.6	4
0	40852	22.6	4
0	40853	22.6	4
0	41010	22.65	4
0	41011	22.65	4
0	41012	22.65	4
0	41013	22.65	4
0	41014	22.65	4
0	41055	22.7	4
0	41056	22.7	4
0	41057	22.7	4
0	41058	22.7	4
0	41059	22.7	4
0	41061	22.7	4
0	41062	22.7	4
0	41063	22.7	4
0	41064	22.7	4
0	41065	22.7	4
0	41139	22.75	4
0	41140	22.75	4
0	41141	22.75	4
0	41142	22.75	4
0	41143	22.75	4
0	41184	22.8	4
0	41185	22.8	4
0	41186	22.8	4
0	41187	22.8	4
0	41188	22.8	4
0	41190	22.8	4
0	41191	22.8	4
0	41192	22.8	4
0	41193	22.8	4
0	41194	22.8	4
0	41245	22.85	4
0	41246	22.85	4
0	41247	22.85	4
0	41248	22.85	4
0	41249	22.85	4
0	41313	22.9	4
0	41314	22.9	4
0	41315	22.9	4
0	41316	22.9	4
0	41317	22.9	4
0	41319	22.9	4
0	41320	22.9	4
0	41321	22.9	4
0	41322	22.9	4
0	41323	22.9	4
0	41402	22.95	4
0	41403	22.95	4
0	41404	22.95	4
0	41405	22.95	4
0	41406	22.95	4
0	41447	23	4
0	41448	23	4
0	41449	23	4
0	41450	23	4
0	41451	23	4
0	41453	23	4
0	41454	23	4
0	41455	23	4
0	41456	23	4
0	41457	23	4
0	41508	23.05	4
0	41509	23.05	4
0	41510	23.05	4
0	41511	23.05	4
0	41512	23.05	4
0	41604	23.1	4
0	41605	23.1	4
0	41606	23.1	4
0	41607	23.1	4
0	41608	23.1	4
0	41610	23.1	4
0	41611	23.1	4
0	41612	23.1	4
0	41613	23.1	4
0	41614	23.1	4
0	41807	23.15	4
0	41808	23.15	4
0	41809	23.15	4
0	41810	23.15	4
0	41811	23.15	4
0	41907	23.2	4
0	41908	23.2	4
0	41909	23.2	4
0	41910	23.2	4
0	41911	23.2	4
0	41913	23.2	4
0	41914	23.2	4
0	41915	23.2	4
0	41916	23.2	4
0	41917	23.2	4
0	41968	23.25	4
0	41969	23.25	4
0	41970	23.25	4
0	41971	23.25	4
0	41972	23.25	4
0	42059	23.3	4
0	42060	23.3	4
0	42061	23.3	4
0	42062	23.3	4
0	42063	23.3	4
0	42065	23.3	4
0	42066	23.3	4
0	42067	23.3	4
0	42068	23.3	4
0	42069	23.3	4
0	42120	23.35	4
0	42121	23.35	4
0	42122	23.35	4
0	42123	23.35	4
0	42124	23.35	4
0	42165	23.4	4
0	42166	23.4	4
0	42167	23.4	4
0	42168	23.4	4
0	42169	23.4	4
0	42171	23.4	4
0	42172	23.4	4
0	42173	23.4	4
0	42174	23.4	4
0	42175	23.4	4
0	42249	23.45	4
0	42250	23.45	4
0	42251	23.45	4
0	42252	23.45	4
0	42253	23.45	4
0	42340	23.5	4
0	42341	23.5	4
0	42342	23.5	4
0	42343	23.5	4
0	42344	23.5	4
0	42346	23.5	4
0	42347	23.5	4
0	42348	23.5	4
0	42349	23.5	4
0	42350	23.5	4
0	42401	23.55	4
0	42402	23.55	4
0	42403	23.55	4
0	42404	23.55	4
0	42405	23.55	4
0	42446	23.6	4
0	42447	23.6	4
0	42448	23.6	4
0	42449	23.6	4
0	42450	23.6	4
0	42452	23.6	4
0	42453	23.6	4
0	42454	23.6	4
0	42455	23.6	4
0	42456	23.6	4
0	42553	23.65	4
0	42554	23.65	4
0	42555	23.65	4
0	42556	23.65	4
0	42557	23.65	4
0	42726	23.7	4
0	42727	23.7	4
0	42728	23.7	4
0	42729	23.7	4
0	42730	23.7	4
0	42732	23.7	4
0	42733	23.7	4
0	42734	23.7	4
0	42735	23.7	4
0	42736	23.7	4
0	42893	23.75	4
0	42894	23.75	4
0	42895	23.75	4
0	42896	23.75	4
0	42897	23.75	4
0	42961	23.8	4
0	42962	23.8	4
0	42963	23.8	4
0	42964	23.8	4
0	42965	23.8	4
0	42967	23.8	4
0	42968	23.8	4
0	42969	23.8	4
0	42970	23.8	4
0	42971	23.8	4
0	43068	23.85	4
0	43069	23.85	4
0	43070	23.85	4
0	43071	23.85	4
0	43072	23.85	4
0	43136	23.9	4
0	43137	23.9	4
0	43138	23.9	4
0	43139	23.9	4
0	43140	23.9	4
0	43142	23.9	4
0	43143	23.9	4
0	43144	23.9	4
0	43145	23.9	4
0	43146	23.9	4
0	43225	23.95	4
0	43226	23.95	4
0	43227	23.95	4
0	43228	23.95	4
0	43229	23.95	4
0	43293	24	4
0	43294	24	4
0	43295	24	4
0	43296	24	4
0	43297	24	4
0	43299	24	4
0	43300	24	4
0	43301	24	4
0	43302	24	4
0	43303	24	4
0	43405	24.05	4
0	43406	24.05	4
0	43407	24.05	4
0	43408	24.05	4
0	43409	24.05	4
0	43478	24.1	4
0	43479	24.1	4
0	43480	24.1	4
0	43481	24.1	4
0	43482	24.1	4
0	43484	24.1	4
0	43485	24.1	4
0	43486	24.1	4
0	43487	24.1	4
0	43488	24.1	4
0	43545	24.15	4
0	43546	24.15	4
0	43547	24.15	4
0	43548	24.15	4
0	43549	24.15	4
0	43613	24.2	4
0	43614	24.2	4
0	43615	24.2	4
0	43616	24.2	4
0	43617	24.2	4
0	43619	24.2	4
0	43620	24.2	4
0	43621	24.2	4
0	43622	24.2	4
0	43623	24.2	4
0	43810	24.25	4
0	43811	24.25	4
0	43812	24.25	4
0	43813	24.25	4
0	43814	24.25	4
0	43964	24.3	4
0	43965	24.3	4
0	43966	24.3	4
0	43967	24.3	4
0	43968	24.3	4
0	43970	24.3	4
0	43971	24.3	4
0	43972	24.3	4
0	43973	24.3	4
0	43974	24.3	4
0	44048	24.35	4
0	44049	24.35	4
0	44050	24.35	4
0	44051	24.35	4
0	44052	24.35	4
0	44139	24.4	4
0	44140	24.4	4
0	44141	24.4	4
0	44142	24.4	4
0	44143	24.4	4
0	44145	24.4	4
0	44146	24.4	4
0	44147	24.4	4
0	44148	24.4	4
0	44149	24.4	4
0	44217	24.45	4
0	44218	24.45	4
0	44219	24.45	4
0	44220	24.45	4
0	44221	24.45	4
0	44308	24.5	4
0	44309	24.5	4
0	44310	24.5	4
0	44311	24.5	4
0	44312	24.5	4
0	44314	24.5	4
0	44315	24.5	4
0	44316	24.5	4
0	44317	24.5	4
0	44318	24.5	4
0	44392	24.55	4
0	44393	24.55	4
0	44394	24.55	4
0	44395	24.55	4
0	44396	24.55	4
0	44483	24.6	4
0	44484	24.6	4
0	44485	24.6	4
0	44486	24.6	4
0	44487	24.6	4
0	44489	24.6	4
0	44490	24.6	4
0	44491	24.6	4
0	44492	24.6	4
0	44493	24.6	4
0	44549	24.65	4
0	44550	24.65	4
0	44551	24.65	4
0	44552	24.65	4
0	44553	24.65	4
0	44594	24.7	4
0	44595	24.7	4
0	44596	24.7	4
0	44597	24.7	4
0	44598	24.7	4
0	44600	24.7	4
0	44601	24.7	4
0	44602	24.7	4
0	44603	24.7	4
0	44604	24.7	4
0	44678	24.75	4
0	44679	24.75	4
0	44680	24.75	4
0	44681	24.75	4
0	44682	24.75	4
0	44839	24.8	4
0	44840	24.8	4
0	44841	24.8	4
0	44842	24.8	4
0	44843	24.8	4
0	44845	24.8	4
0	44846	24.8	4
0	44847	24.8	4
0	44848	24.8	4
0	44849	24.8	4
0	44969	24.85	4
0	44970	24.85	4
0	44971	24.85	4
0	44972	24.85	4
0	44973	24.85	4
0	45037	24.9	4
0	45038	24.9	4
0	45039	24.9	4
0	45040	24.9	4
0	45041	24.9	4
0	45043	24.9	4
0	45044	24.9	4
0	45045	24.9	4
0	45046	24.9	4
0	45047	24.9	4
0	45126	24.95	4
0	45127	24.95	4
0	45128	24.95	4
0	45129	24.95	4
0	45130	24.95	4
0	45194	25	4
0	45195	25	4
0	45196	25	4
0	45197	25	4
0	45198	25	4
0	45200	25	4
0	45201	25	4
0	45202	25	4
0	45203	25	4
0	45204	25	4
0	45278	25.05	4
0	45279	25.05	4
0	45280	25.05	4
0	45281	25.05	4
0	45282	25.05	4
0	45328	25.1	4
0	45329	25.1	4
0	45330	25.1	4
0	45331	25.1	4
0	45332	25.1	4
0	45334	25.1	4
0	45335	25.1	4
0	45336	25.1	4
0	45337	25.1	4
0	45338	25.1	4
0	45441	25.15	4
0	45442	25.15	4
0	45443	25.15	4
0	45444	25.15	4
0	45445	25.15	4
0	45486	25.2	4
0	45487	25.2	4
0	45488	25.2	4
0	45489	25.2	4
0	45490	25.2	4
0	45492	25.2	4
0	45493	25.2	4
0	45494	25.2	4
0	45495	25.2	4
0	45496	25.2	4
0	45570	25.25	4
0	45571	25.25	4
0	45572	25.25	4
0	45573	25.25	4
0	45574	25.25	4
0	45638	25.3	4
0	45639	25.3	4
0	45640	25.3	4
0	45641	25.3	4
0	45642	25.3	4
0	45644	25.3	4
0	45645	25.3	4
0	45646	25.3	4
0	45647	25.3	4
0	45648	25.3	4
0	45803	25.35	4
0	45804	25.35	4
0	45805	25.35	4
0	45806	25.35	4
0	45807	25.35	4
0	45944	25.4	4
0	45945	25.4	4
0	45946	25.4	4
0	45947	25.4	4
0	45948	25.4	4
0	45950	25.4	4
0	45951	25.4	4
0	45952	25.4	4
0	45953	25.4	4
0	45954	25.4	4
0	46028	25.45	4
0	46029	25.45	4
0	46030	25.45	4
0	46031	25.45	4
0	46032	25.45	4
0	46096	25.5	4
0	46097	25.5	4
0	46098	25.5	4
0	46099	25.5	4
0	46100	25.5	4
0	46102	25.5	4
0	46103	25.5	4
0	46104	25.5	4
0	46105	25.5	4
0	46106	25.5	4
0	46180	25.55	4
0	46181	25.55	4
0	46182	25.55	4
0	46183	25.55	4
0	46184	25.55	4
0	46248	25.6	4
0	46249	25.6	4
0	46250	25.6	4
0	46251	25.6	4
0	46252	25.6	4
0	46254	25.6	4
0	46255	25.6	4
0	46256	25.6	4
0	46257	25.6	4
0	46258	25.6	4
0	46309	25.65	4
0	46310	25.65	4
0	46311	25.65	4
0	46312	25.65	4
0	46313	25.65	4
0	46400	25.7	4
0	46401	25.7	4
0	46402	25.7	4
0	46403	25.7	4
0	46404	25.7	4
0	46406	25.7	4
0	46407	25.7	4
0	46408	25.7	4
0	46409	25.7	4
0	46410	25.7	4
0	46461	25.75	4
0	46462	25.75	4
0	46463	25.75	4
0	46464	25.75	4
0	46465	25.75	4
0	46529	25.8	4
0	46530	25.8	4
0	46531	25.8	4
0	46532	25.8	4
0	46533	25.8	4
0	46535	25.8	4
0	46536	25.8	4
0	46537	25.8	4
0	46538	25.8	4
0	46539	25.8	4
0	46613	25.85	4
0	46614	25.85	4
0	46615	25.85	4
0	46616	25.85	4
0	46617	25.85	4
0	46773	25.9	4
0	46774	25.9	4
0	46775	25.9	4
0	46776	25.9	4
0	46777	25.9	4
0	46779	25.9	4
0	46780	25.9	4
0	46781	25.9	4
0	46782	25.9	4
0	46783	25.9	4
0	46857	25.95	4
0	46858	25.95	4
0	46859	25.95	4
0	46860	25.95	4
0	46861	25.95	4
0	46925	26	4
0	46926	26	4
0	46927	26	4
0	46928	26	4
0	46929	26	4
0	46931	26	4
0	46932	26	4
0	46933	26	4
0	46934	26	4
0	46935	26	4
0	47009	26.05	4
0	47010	26.05	4
0	47011	26.05	4
0	47012	26.05	4
0	47013	26.05	4
0	47087	26.1	4
0	47088	26.1	4
0	47089	26.1	4
0	47090	26.1	4
0	47091	26.1	4
0	47093	26.1	4
0	47094	26.1	4
0	47095	26.1	4
0	47096	26.1	4
0	47097	26.1	4
0	47200	26.15	4
0	47201	26.15	4
0	47202	26.15	4
0	47203	26.15	4
0	47204	26.15	4
0	47245	26.2	4
0	47246	26.2	4
0	47247	26.2	4
0	47248	26.2	4
0	47249	26.2	4
0	47251	26.2	4
0	47252	26.2	4
0	47253	26.2	4
0	47254	26.2	4
0	47255	26.2	4
0	47346	26.25	4
0	47347	26.25	4
0	47348	26.25	4
0	47349	26.25	4
0	47350	26.25	4
0	47414	26.3	4
0	47415	26.3	4
0	47416	26.3	4
0	47417	26.3	4
0	47418	26.3	4
0	47420	26.3	4
0	47421	26.3	4
0	47422	26.3	4
0	47423	26.3	4
0	47424	26.3	4
0	47492	26.35	4
0	47493	26.35	4
0	47494	26.35	4
0	47495	26.35	4
0	47496	26.35	4
0	47577	26.4	4
0	47578	26.4	4
0	47579	26.4	4
0	47580	26.4	4
0	47581	26.4	4
0	47583	26.4	4
0	47584	26.4	4
0	47585	26.4	4
0	47586	26.4	4
0	47587	26.4	4
0	47762	26.45	4
0	47763	26.45	4
0	47764	26.45	4
0	47765	26.45	4
0	47766	26.45	4
0	47857	26.5	4
0	47858	26.5	4
0	47859	26.5	4
0	47860	26.5	4
0	47861	26.5	4
0	47863	26.5	4
0	47864	26.5	4
0	47865	26.5	4
0	47866	26.5	4
0	47867	26.5	4
0	47964	26.55	4
0	47965	26.55	4
0	47966	26.55	4
0	47967	26.55	4
0	47968	26.55	4
0	48014	26.6	4
0	48015	26.6	4
0	48016	26.6	4
0	48017	26.6	4
0	48018	26.6	4
0	48020	26.6	4
0	48021	26.6	4
0	48022	26.6	4
0	48023	26.6	4
0	48024	26.6	4
0	48098	26.65	4
0	48099	26.65	4
0	48100	26.65	4
0	48101	26.65	4
0	48102	26.65	4
0	48171	26.7	4
0	48172	26.7	4
0	48173	26.7	4
0	48174	26.7	4
0	48175	26.7	4
0	48177	26.7	4
0	48178	26.7	4
0	48179	26.7	4
0	48180	26.7	4
0	48181	26.7	4
0	48232	26.75	4
0	48233	26.75	4
0	48234	26.75	4
0	48235	26.75	4
0	48236	26.75	4
0	48323	26.8	4
0	48324	26.8	4
0	48325	26.8	4
0	48326	26.8	4
0	48327	26.8	4
0	48329	26.8	4
0	48330	26.8	4
0	48331	26.8	4
0	48332	26.8	4
0	48333	26.8	4
0	48384	26.85	4
0	48385	26.85	4
0	48386	26.85	4
0	48387	26.85	4
0	48388	26.85	4
0	48452	26.9	4
0	48453	26.9	4
0	48454	26.9	4
0	48455	26.9	4
0	48456	26.9	4
0	48458	26.9	4
0	48459	26.9	4
0	48460	26.9	4
0	48461	26.9	4
0	48462	26.9	4
0	48541	26.95	4
0	48542	26.95	4
0	48543	26.95	4
0	48544	26.95	4
0	48545	26.95	4
0	48683	27	4
0	48684	27	4
0	48685	27	4
0	48686	27	4
0	48687	27	4
0	48689	27	4
0	48690	27	4
0	48691	27	4
0	48692	27	4
0	48693	27	4
0	48749	27.05	4
0	48750	27.05	4
0	48751	27.05	4
0	48752	27.05	4
0	48753	27.05	4
0	48822	27.1	4
0	48823	27.1	4
0	48824	27.1	4
0	48825	27.1	4
0	48826	27.1	4
0	48828	27.1	4
0	48829	27.1	4
0	48830	27.1	4
0	48831	27.1	4
0	48832	27.1	4
0	48889	27.15	4
0	48890	27.15	4
0	48891	27.15	4
0	48892	27.15	4
0	48893	27.15	4
0	48957	27.2	4
0	48958	27.2	4
0	48959	27.2	4
0	48960	27.2	4
0	48961	27.2	4
0	48963	27.2	4
0	48964	27.2	4
0	48965	27.2	4
0	48966	27.2	4
0	48967	27.2	4
0	49041	27.25	4
0	49042	27.25	4
0	49043	27.25	4
0	49044	27.25	4
0	49045	27.25	4
0	49109	27.3	4
0	49110	27.3	4
0	49111	27.3	4
0	49112	27.3	4
0	49113	27.3	4
0	49115	27.3	4
0	49116	27.3	4
0	49117	27.3	4
0	49118	27.3	4
0	49119	27.3	4
0	49216	27.35	4
0	49217	27.35	4
0	49218	27.35	4
0	49219	27.35	4
0	49220	27.35	4
0	49261	27.4	4
0	49262	27.4	4
0	49263	27.4	4
0	49264	27.4	4
0	49265	27.4	4
0	49267	27.4	4
0	49268	27.4	4
0	49269	27.4	4
0	49270	27.4	4
0	49271	27.4	4
0	49345	27.45	4
0	49346	27.45	4
0	49347	27.45	4
0	49348	27.45	4
0	49349	27.45	4
0	49413	27.5	4
0	49414	27.5	4
0	49415	27.5	4
0	49416	27.5	4
0	49417	27.5	4
0	49419	27.5	4
0	49420	27.5	4
0	49421	27.5	4
0	49422	27.5	4
0	49423	27.5	4
0	49581	27.55	4
0	49582	27.55	4
0	49583	27.55	4
0	49584	27.55	4
0	49585	27.55	4
0	49653	27.6	4
0	49654	27.6	4
0	49655	27.6	4
0	49656	27.6	4
0	49657	27.6	4
0	49659	27.6	4
0	49660	27.6	4
0	49661	27.6	4
0	49662	27.6	4
0	49663	27.6	4
0	49737	27.65	4
0	49738	27.65	4
0	49739	27.65	4
0	49740	27.65	4
0	49741	27.65	4
0	49782	27.7	4
0	49783	27.7	4
0	49784	27.7	4
0	49785	27.7	4
0	49786	27.7	4
0	49788	27.7	4
0	49789	27.7	4
0	49790	27.7	4
0	49791	27.7	4
0	49792	27.7	4
0	49866	27.75	4
0	49867	27.75	4
0	49868	27.75	4
0	49869	27.75	4
0	49870	27.75	4
0	49934	27.8	4
0	49935	27.8	4
0	49936	27.8	4
0	49937	27.8	4
0	49938	27.8	4
0	49940	27.8	4
0	49941	27.8	4
0	49942	27.8	4
0	49943	27.8	4
0	49944	27.8	4
0	50018	27.85	4
0	50019	27.85	4
0	50020	27.85	4
0	50021	27.85	4
0	50022	27.85	4
0	50132	27.9	4
0	50133	27.9	4
0	50134	27.9	4
0	50135	27.9	4
0	50136	27.9	4
0	50138	27.9	4
0	50139	27.9	4
0	50140	27.9	4
0	50141	27.9	4
0	50142	27.9	4
0	50193	27.95	4
0	50194	27.95	4
0	50195	27.95	4
0	50196	27.95	4
0	50197	27.95	4
0	50261	28	4
0	50262	28	4
0	50263	28	4
0	50264	28	4
0	50265	28	4
0	50267	28	4
0	50268	28	4
0	50269	28	4
0	50270	28	4
0	50271	28	4
0	50406	28.05	4
0	50407	28.05	4
0	50408	28.05	4
0	50409	28.05	4
0	50410	28.05	4
0	50554	28.1	4
0	50555	28.1	4
0	50556	28.1	4
0	50557	28.1	4
0	50558	28.1	4
0	50560	28.1	4
0	50561	28.1	4
0	50562	28.1	4
0	50563	28.1	4
0	50564	28.1	4
0	50644	28.15	4
0	50645	28.15	4
0	50646	28.15	4
0	50647	28.15	4
0	50648	28.15	4
0	50717	28.2	4
0	50718	28.2	4
0	50719	28.2	4
0	50720	28.2	4
0	50721	28.2	4
0	50723	28.2	4
0	50724	28.2	4
0	50725	28.2	4
0	50726	28.2	4
0	50727	28.2	4
0	50778	28.25	4
0	50779	28.25	4
0	50780	28.25	4
0	50781	28.25	4
0	50782	28.25	4
0	50851	28.3	4
0	50852	28.3	4
0	50853	28.3	4
0	50854	28.3	4
0	50855	28.3	4
0	50857	28.3	4
0	50858	28.3	4
0	50859	28.3	4
0	50860	28.3	4
0	50861	28.3	4
0	50912	28.35	4
0	50913	28.35	4
0	50914	28.35	4
0	50915	28.35	4
0	50916	28.35	4
0	50980	28.4	4
0	50981	28.4	4
0	50982	28.4	4
0	50983	28.4	4
0	50984	28.4	4
0	50986	28.4	4
0	50987	28.4	4
0	50988	28.4	4
0	50989	28.4	4
0	50990	28.4	4
0	51104	28.45	4
0	51105	28.45	4
0	51106	28.45	4
0	51107	28.45	4
0	51108	28.45	4
0	51172	28.5	4
0	51173	28.5	4
0	51174	28.5	4
0	51175	28.5	4
0	51176	28.5	4
0	51178	28.5	4
0	51179	28.5	4
0	51180	28.5	4
0	51181	28.5	4
0	51182	28.5	4
0	51256	28.55	4
0	51257	28.55	4
0	51258	28.55	4
0	51259	28.55	4
0	51260	28.55	4
0	51352	28.6	4
0	51353	28.6	4
0	51354	28.6	4
0	51355	28.6	4
0	51356	28.6	4
0	51358	28.6	4
0	51359	28.6	4
0	51360	28.6	4
0	51361	28.6	4
0	51362	28.6	4
0	51543	28.65	4
0	51544	28.65	4
0	51545	28.65	4
0	51546	28.65	4
0	51547	28.65	4
0	51615	28.7	4
0	51616	28.7	4
0	51617	28.7	4
0	51618	28.7	4
0	51619	28.7	4
0	51621	28.7	4
0	51622	28.7	4
0	51623	28.7	4
0	51624	28.7	4
0	51625	28.7	4
0	51676	28.75	4
0	51677	28.75	4
0	51678	28.75	4
0	51679	28.75	4
0	51680	28.75	4
0	51721	28.8	4
0	51722	28.8	4
0	51723	28.8	4
0	51724	28.8	4
0	51725	28.8	4
0	51727	28.8	4
0	51728	28.8	4
0	51729	28.8	4
0	51730	28.8	4
0	51731	28.8	4
0	51787	28.85	4
0	51788	28.85	4
0	51789	28.85	4
0	51790	28.85	4
0	51791	28.85	4
0	51832	28.9	4
0	51833	28.9	4
0	51834	28.9	4
0	51835	28.9	4
0	51836	28.9	4
0	51838	28.9	4
0	51839	28.9	4
0	51840	28.9	4
0	51841	28.9	4
0	51842	28.9	4
0	51916	28.95	4
0	51917	28.95	4
0	51918	28.95	4
0	51919	28.95	4
0	51920	28.95	4
0	52007	29	4
0	52008	29	4
0	52009	29	4
0	52010	29	4
0	52011	29	4
0	52013	29	4
0	52014	29	4
0	52015	29	4
0	52016	29	4
0	52017	29	4
0	52091	29.05	4
0	52092	29.05	4
0	52093	29.05	4
0	52094	29.05	4
0	52095	29.05	4
0	52164	29.1	4
0	52165	29.1	4
0	52166	29.1	4
0	52167	29.1	4
0	52168	29.1	4
0	52170	29.1	4
0	52171	29.1	4
0	52172	29.1	4
0	52173	29.1	4
0	52174	29.1	4
0	52277	29.15	4
0	52278	29.15	4
0	52279	29.15	4
0	52280	29.15	4
0	52281	29.15	4
0	52446	29.2	4
0	52447	29.2	4
0	52448	29.2	4
0	52449	29.2	4
0	52450	29.2	4
0	52452	29.2	4
0	52453	29.2	4
0	52454	29.2	4
0	52455	29.2	4
0	52456	29.2	4
0	52534	29.25	4
0	52535	29.25	4
0	52536	29.25	4
0	52537	29.25	4
0	52538	29.25	4
0	52579	29.3	4
0	52580	29.3	4
0	52581	29.3	4
0	52582	29.3	4
0	52583	29.3	4
0	52585	29.3	4
0	52586	29.3	4
0	52587	29.3	4
0	52588	29.3	4
0	52589	29.3	4
0	52640	29.35	4
0	52641	29.35	4
0	52642	29.35	4
0	52643	29.35	4
0	52644	29.35	4
0	52708	29.4	4
0	52709	29.4	4
0	52710	29.4	4
0	52711	29.4	4
0	52712	29.4	4
0	52714	29.4	4
0	52715	29.4	4
0	52716	29.4	4
0	52717	29.4	4
0	52718	29.4	4
0	52769	29.45	4
0	52770	29.45	4
0	52771	29.45	4
0	52772	29.45	4
0	52773	29.45	4
0	52837	29.5	4
0	52838	29.5	4
0	52839	29.5	4
0	52840	29.5	4
0	52841	29.5	4
0	52843	29.5	4
0	52844	29.5	4
0	52845	29.5	4
0	52846	29.5	4
0	52847	29.5	4
0	52949	29.55	4
0	52950	29.55	4
0	52951	29.55	4
0	52952	29.55	4
0	52953	29.55	4
0	53017	29.6	4
0	53018	29.6	4
0	53019	29.6	4
0	53020	29.6	4
0	53021	29.6	4
0	53023	29.6	4
0	53024	29.6	4
0	53025	29.6	4
0	53026	29.6	4
0	53027	29.6	4
0	53101	29.65	4
0	53102	29.65	4
0	53103	29.65	4
0	53104	29.65	4
0	53105	29.65	4
0	53169	29.7	4
0	53170	29.7	4
0	53171	29.7	4
0	53172	29.7	4
0	53173	29.7	4
0	53175	29.7	4
0	53176	29.7	4
0	53177	29.7	4
0	53178	29.7	4
0	53179	29.7	4
0	53317	29.75	4
0	53318	29.75	4
0	53319	29.75	4
0	53320	29.75	4
0	53321	29.75	4
0	53376	29.8	4
0	53377	29.8	4
0	53378	29.8	4
0	53379	29.8	4
0	53380	29.8	4
0	53382	29.8	4
0	53383	29.8	4
0	53384	29.8	4
0	53385	29.8	4
0	53386	29.8	4
0	53437	29.85	4
0	53438	29.85	4
0	53439	29.85	4
0	53440	29.85	4
0	53441	29.85	4
0	53521	29.9	4
0	53522	29.9	4
0	53523	29.9	4
0	53524	29.9	4
0	53525	29.9	4
0	53527	29.9	4
0	53528	29.9	4
0	53529	29.9	4
0	53530	29.9	4
0	53531	29.9	4
0	53630	29.95	4
0	53631	29.95	4
0	53632	29.95	4
0	53633	29.95	4
0	53634	29.95	4
0	53675	30	3
0	53676	30	4
0	53677	30	2
0	53678	30	3
0	53679	30	4
0	53681	30	3
0	53682	30	4
0	53683	30	2
0	53684	30	3
0	53685	30	4
0	53794	30.05	3
0	53795	30.05	4
0	53796	30.05	2
0	53797	30.05	3
0	53798	30.05	4
0	53952	30.1	3
0	53953	30.1	4
0	53954	30.1	2
0	53955	30.1	3
0	53956	30.1	4
0	53958	30.1	3
0	53959	30.1	4
0	53960	30.1	2
0	53961	30.1	3
0	53962	30.1	4
0	54019	30.15	3
0	54020	30.15	4
0	54021	30.15	2
0	54022	30.15	3
0	54023	30.15	4
0	54110	30.2	3
0	54111	30.2	4
0	54112	30.2	2
0	54113	30.2	3
0	54114	30.2	4
0	54116	30.2	3
0	54117	30.2	4
0	54118	30.2	2
0	54119	30.2	3
0	54120	30.2	4
0	54194	30.25	3
0	54195	30.25	4
0	54196	30.25	2
0	54197	30.25	3
0	54198	30.25	4
0	54354	30.3	3
0	54355	30.3	4
0	54356	30.3	2
0	54357	30.3	3
0	54358	30.3	4
0	54360	30.3	3
0	54361	30.3	4
0	54362	30.3	2
0	54363	30.3	3
0	54364	30.3	4
0	54499	30.35	3
0	54500	30.35	4
0	54501	30.35	2
0	54502	30.35	3
0	54503	30.35	4
0	54563	30.4	3
0	54564	30.4	4
0	54565	30.4	2
0	54566	30.4	3
0	54567	30.4	4
0	54569	30.4	3
0	54570	30.4	4
0	54571	30.4	2
0	54572	30.4	3
0	54573	30.4	4
0	54624	30.45	3
0	54625	30.45	4
0	54626	30.45	2
0	54627	30.45	3
0	54628	30.45	4
0	54692	30.5	3
0	54693	30.5	4
0	54694	30.5	2
0	54695	30.5	3
0	54696	30.5	4
0	54698	30.5	3
0	54699	30.5	4
0	54700	30.5	2
0	54701	30.5	3
0	54702	30.5	4
0	54753	30.55	3
0	54754	30.55	4
0	54755	30.55	2
0	54756	30.55	3
0	54757	30.55	4
0	54820	30.6	3
0	54821	30.6	4
0	54822	30.6	2
0	54823	30.6	3
0	54824	30.6	4
0	54826	30.6	3
0	54827	30.6	4
0	54828	30.6	2
0	54829	30.6	3
0	54830	30.6	4
0	54927	30.65	3
0	54928	30.65	4
0	54929	30.65	2
0	54930	30.65	3
0	54931	30.65	4
0	54972	30.7	3
0	54973	30.7	4
0	54974	30.7	2
0	54975	30.7	3
0	54976	30.7	4
0	54978	30.7	3
0	54979	30.7	4
0	54980	30.7	2
0	54981	30.7	3
0	54982	30.7	4
0	55061	30.75	3
0	55062	30.75	4
0	55063	30.75	2
0	55064	30.75	3
0	55065	30.75	4
0	55129	30.8	3
0	55130	30.8	4
0	55131	30.8	2
0	55132	30.8	3
0	55133	30.8	4
0	55135	30.8	3
0	55136	30.8	4
0	55137	30.8	2
0	55138	30.8	3
0	55139	30.8	4
0	55264	30.85	3
0	55265	30.85	4
0	55266	30.85	2
0	55267	30.85	3
0	55268	30.85	4
0	55365	30.9	3
0	55366	30.9	4
0	55367	30.9	2
0	55368	30.9	3
0	55369	30.9	4
0	55371	30.9	3
0	55372	30.9	4
0	55373	30.9	2
0	55374	30.9	3
0	55375	30.9	4
0	55483	30.95	3
0	55484	30.95	4
0	55485	30.95	2
0	55486	30.95	3
0	55487	30.95	4
0	55528	31	3
0	55529	31	4
0	55530	31	2
0	55531	31	3
0	55532	31	4
0	55534	31	3
0	55535	31	4
0	55536	31	2
0	55537	31	3
0	55538	31	4
0	55612	31.05	3
0	55613	31.05	4
0	55614	31.05	2
0	55615	31.05	3
0	55616	31.05	4
0	55662	31.1	3
0	55663	31.1	4
0	55664	31.1	2
0	55665	31.1	3
0	55666	31.1	4
0	55668	31.1	3
0	55669	31.1	4
0	55670	31.1	2
0	55671	31.1	3
0	55672	31.1	4
0	55729	31.15	3
0	55730	31.15	4
0	55731	31.15	2
0	55732	31.15	3
0	55733	31.15	4
0	55843	31.2	3
0	55844	31.2	4
0	55845	31.2	2
0	55846	31.2	3
0	55847	31.2	4
0	55849	31.2	3
0	55850	31.2	4
0	55851	31.2	2
0	55852	31.2	3
0	55853	31.2	4
0	55904	31.25	3
0	55905	31.25	4
0	55906	31.25	2
0	55907	31.25	3
0	55908	31.25	4
0	55972	31.3	3
0	55973	31.3	4
0	55974	31.3	2
0	55975	31.3	3
0	55976	31.3	4
0	55978	31.3	3
0	55979	31.3	4
0	55980	31.3	2
0	55981	31.3	3
0	55982	31.3	4
0	56061	31.35	3
0	56062	31.35	4
0	56063	31.35	2
0	56064	31.35	3
0	56065	31.35	4
0	56192	31.4	3
0	56193	31.4	4
0	56194	31.4	2
0	56195	31.4	3
0	56196	31.4	4
0	56198	31.4	3
0	56199	31.4	4
0	56200	31.4	2
0	56201	31.4	3
0	56202	31.4	4
0	56327	31.45	3
0	56328	31.45	4
0	56329	31.45	2
0	56330	31.45	3
0	56331	31.45	4
0	56453	31.5	3
0	56454	31.5	4
0	56455	31.5	2
0	56456	31.5	3
0	56457	31.5	4
0	56459	31.5	3
0	56460	31.5	4
0	56461	31.5	2
0	56462	31.5	3
0	56463	31.5	4
0	56545	31.55	3
0	56546	31.55	4
0	56547	31.55	2
0	56548	31.55	3
0	56549	31.55	4
0	56613	31.6	3
0	56614	31.6	4
0	56615	31.6	2
0	56616	31.6	3
0	56617	31.6	4
0	56619	31.6	3
0	56620	31.6	4
0	56621	31.6	2
0	56622	31.6	3
0	56623	31.6	4
0	56674	31.65	3
0	56675	31.65	4
0	56676	31.65	2
0	56677	31.65	3
0	56678	31.65	4
0	56719	31.7	3
0	56720	31.7	4
0	56721	31.7	2
0	56722	31.7	3
0	56723	31.7	4
0	56725	31.7	3
0	56726	31.7	4
0	56727	31.7	2
0	56728	31.7	3
0	56729	31.7	4
0	56808	31.75	3
0	56809	31.75	4
0	56810	31.75	2
0	56811	31.75	3
0	56812	31.75	4
0	56876	31.8	3
0	56877	31.8	4
0	56878	31.8	2
0	56879	31.8	3
0	56880	31.8	4
0	56882	31.8	3
0	56883	31.8	4
0	56884	31.8	2
0	56885	31.8	3
0	56886	31.8	4
0	56960	31.85	3
0	56961	31.85	4
0	56962	31.85	2
0	56963	31.85	3
0	56964	31.85	4
0	57010	31.9	3
0	57011	31.9	4
0	57012	31.9	2
0	57013	31.9	3
0	57014	31.9	4
0	57016	31.9	3
0	57017	31.9	4
0	57018	31.9	2
0	57019	31.9	3
0	57020	31.9	4
0	57176	31.95	3
0	57177	31.95	4
0	57178	31.95	2
0	57179	31.95	3
0	57180	31.95	4
0	57303	32	3
0	57304	32	4
0	57305	32	2
0	57306	32	3
0	57307	32	4
0	57309	32	3
0	57310	32	4
0	57311	32	2
0	57312	32	3
0	57313	32	4
0	57364	32.05	3
0	57365	32.05	4
0	57366	32.05	2
0	57367	32.05	3
0	57368	32.05	4
0	57414	32.1	3
0	57415	32.1	4
0	57416	32.1	2
0	57417	32.1	3
0	57418	32.1	4
0	57420	32.1	3
0	57421	32.1	4
0	57422	32.1	2
0	57423	32.1	3
0	57424	32.1	4
0	57498	32.15	3
0	57499	32.15	4
0	57500	32.15	2
0	57501	32.15	3
0	57502	32.15	4
0	57543	32.2	3
0	57544	32.2	4
0	57545	32.2	2
0	57546	32.2	3
0	57547	32.2	4
0	57549	32.2	3
0	57550	32.2	4
0	57551	32.2	2
0	57552	32.2	3
0	57553	32.2	4
0	57604	32.25	3
0	57605	32.25	4
0	57606	32.25	2
0	57607	32.25	3
0	57608	32.25	4
0	57666	32.3	3
0	57667	32.3	4
0	57668	32.3	2
0	57669	32.3	3
0	57670	32.3	4
0	57672	32.3	3
0	57673	32.3	4
0	57674	32.3	2
0	57675	32.3	3
0	57676	32.3	4
0	57750	32.35	3
0	57751	32.35	4
0	57752	32.35	2
0	57753	32.35	3
0	57754	32.35	4
0	57818	32.4	3
0	57819	32.4	4
0	57820	32.4	2
0	57821	32.4	3
0	57822	32.4	4
0	57824	32.4	3
0	57825	32.4	4
0	57826	32.4	2
0	57827	32.4	3
0	57828	32.4	4
0	57879	32.45	3
0	57880	32.45	4
0	57881	32.45	2
0	57882	32.45	3
0	57883	32.45	4
0	57990	32.5	3
0	57991	32.5	4
0	57992	32.5	2
0	57993	32.5	3
0	57994	32.5	4
0	57996	32.5	3
0	57997	32.5	4
0	57998	32.5	2
0	57999	32.5	3
0	58000	32.5	4
0	58094	32.55	3
0	58095	32.55	4
0	58096	32.55	2
0	58097	32.55	3
0	58098	32.55	4
0	58139	32.6	3
0	58140	32.6	4
0	58141	32.6	2
0	58142	32.6	3
0	58143	32.6	4
0	58145	32.6	3
0	58146	32.6	4
0	58147	32.6	2
0	58148	32.6	3
0	58149	32.6	4
0	58259	32.65	3
0	58260	32.65	4
0	58261	32.65	2
0	58262	32.65	3
0	58263	32.65	4
0	58348	32.7	3
0	58349	32.7	4
0	58350	32.7	2
0	58351	32.7	3
0	58352	32.7	4
0	58354	32.7	3
0	58355	32.7	4
0	58356	32.7	2
0	58357	32.7	3
0	58358	32.7	4
0	58409	32.75	3
0	58410	32.75	4
0	58411	32.75	2
0	58412	32.75	3
0	58413	32.75	4
0	58477	32.8	3
0	58478	32.8	4
0	58479	32.8	2
0	58480	32.8	3
0	58481	32.8	4
0	58483	32.8	3
0	58484	32.8	4
0	58485	32.8	2
0	58486	32.8	3
0	58487	32.8	4
0	58561	32.85	3
0	58562	32.85	4
0	58563	32.85	2
0	58564	32.85	3
0	58565	32.85	4
0	58629	32.9	3
0	58630	32.9	4
0	58631	32.9	2
0	58632	32.9	3
0	58633	32.9	4
0	58635	32.9	3
0	58636	32.9	4
0	58637	32.9	2
0	58638	32.9	3
0	58639	32.9	4
0	58736	32.95	3
0	58737	32.95	4
0	58738	32.95	2
0	58739	32.95	3
0	58740	32.95	4
0	58804	33	3
0	58805	33	4
0	58806	33	2
0	58807	33	3
0	58808	33	4
0	58810	33	3
0	58811	33	4
0	58812	33	2
0	58813	33	3
0	58814	33	4
0	58893	33.05	3
0	58894	33.05	4
0	58895	33.05	2
0	58896	33.05	3
0	58897	33.05	4
0	58960	33.1	3
0	58961	33.1	4
0	58962	33.1	2
0	58963	33.1	3
0	58964	33.1	4
0	58966	33.1	3
0	58967	33.1	4
0	58968	33.1	2
0	58969	33.1	3
0	58970	33.1	4
0	59092	33.15	3
0	59093	33.15	4
0	59094	33.15	2
0	59095	33.15	3
0	59096	33.15	4
0	59188	33.2	3
0	59189	33.2	4
0	59190	33.2	2
0	59191	33.2	3
0	59192	33.2	4
0	59194	33.2	3
0	59195	33.2	4
0	59196	33.2	2
0	59197	33.2	3
0	59198	33.2	4
0	59312	33.25	3
0	59313	33.25	4
0	59314	33.25	2
0	59315	33.25	3
0	59316	33.25	4
0	59357	33.3	3
0	59358	33.3	4
0	59359	33.3	2
0	59360	33.3	3
0	59361	33.3	4
0	59363	33.3	3
0	59364	33.3	4
0	59365	33.3	2
0	59366	33.3	3
0	59367	33.3	4
0	59464	33.35	3
0	59465	33.35	4
0	59466	33.35	2
0	59467	33.35	3
0	59468	33.35	4
0	59555	33.4	3
0	59556	33.4	4
0	59557	33.4	2
0	59558	33.4	3
0	59559	33.4	4
0	59561	33.4	3
0	59562	33.4	4
0	59563	33.4	2
0	59564	33.4	3
0	59565	33.4	4
0	59633	33.45	3
0	59634	33.45	4
0	59635	33.45	2
0	59636	33.45	3
0	59637	33.45	4
0	59741	33.5	3
0	59742	33.5	4
0	59743	33.5	2
0	59744	33.5	3
0	59745	33.5	4
0	59747	33.5	3
0	59748	33.5	4
0	59749	33.5	2
0	59750	33.5	3
0	59751	33.5	4
0	59807	33.55	3
0	59808	33.55	4
0	59809	33.55	2
0	59810	33.55	3
0	59811	33.55	4
0	59857	33.6	3
0	59858	33.6	4
0	59859	33.6	2
0	59860	33.6	3
0	59861	33.6	4
0	59863	33.6	3
0	59864	33.6	4
0	59865	33.6	2
0	59866	33.6	3
0	59867	33.6	4
0	59961	33.65	3
0	59962	33.65	4
0	59963	33.65	2
0	59964	33.65	3
0	59965	33.65	4
0	60006	33.7	3
0	60007	33.7	4
0	60008	33.7	2
0	60009	33.7	3
0	60010	33.7	4
0	60012	33.7	3
0	60013	33.7	4
0	60014	33.7	2
0	60015	33.7	3
0	60016	33.7	4
0	60090	33.75	3
0	60091	33.75	4
0	60092	33.75	2
0	60093	33.75	3
0	60094	33.75	4
0	60140	33.8	3
0	60141	33.8	4
0	60142	33.8	2
0	60143	33.8	3
0	60144	33.8	4
0	60146	33.8	3
0	60147	33.8	4
0	60148	33.8	2
0	60149	33.8	3
0	60150	33.8	4
0	60201	33.85	3
0	60202	33.85	4
0	60203	33.85	2
0	60204	33.85	3
0	60205	33.85	4
0	60274	33.9	3
0	60275	33.9	4
0	60276	33.9	2
0	60277	33.9	3
0	60278	33.9	4
0	60280	33.9	3
0	60281	33.9	4
0	60282	33.9	2
0	60283	33.9	3
0	60284	33.9	4
0	60358	33.95	3
0	60359	33.95	4
0	60360	33.95	2
0	60361	33.95	3
0	60362	33.95	4
0	60403	34	3
0	60404	34	4
0	60405	34	2
0	60406	34	3
0	60407	34	4
0	60409	34	3
0	60410	34	4
0	60411	34	2
0	60412	34	3
0	60413	34	4
0	60510	34.05	3
0	60511	34.05	4
0	60512	34.05	2
0	60513	34.05	3
0	60514	34.05	4
0	60560	34.1	3
0	60561	34.1	4
0	60562	34.1	2
0	60563	34.1	3
0	60564	34.1	4
0	60566	34.1	3
0	60567	34.1	4
0	60568	34.1	2
0	60569	34.1	3
0	60570	34.1	4
0	60627	34.15	3
0	60628	34.15	4
0	60629	34.15	2
0	60630	34.15	3
0	60631	34.15	4
0	60715	34.2	3
0	60716	34.2	4
0	60717	34.2	2
0	60718	34.2	3
0	60719	34.2	4
0	60721	34.2	3
0	60722	34.2	4
0	60723	34.2	2
0	60724	34.2	3
0	60725	34.2	4
0	60793	34.25	3
0	60794	34.25	4
0	60795	34.25	2
0	60796	34.25	3
0	60797	34.25	4
0	60861	34.3	3
0	60862	34.3	4
0	60863	34.3	2
0	60864	34.3	3
0	60865	34.3	4
0	60867	34.3	3
0	60868	34.3	4
0	60869	34.3	2
0	60870	34.3	3
0	60871	34.3	4
0	60922	34.35	3
0	60923	34.35	4
0	60924	34.35	2
0	60925	34.35	3
0	60926	34.35	4
0	60990	34.4	3
0	60991	34.4	4
0	60992	34.4	2
0	60993	34.4	3
0	60994	34.4	4
0	60996	34.4	3
0	60997	34.4	4
0	60998	34.4	2
0	60999	34.4	3
0	61000	34.4	4
0	61074	34.45	3
0	61075	34.45	4
0	61076	34.45	2
0	61077	34.45	3
0	61078	34.45	4
0	61142	34.5	3
0	61143	34.5	4
0	61144	34.5	2
0	61145	34.5	3
0	61146	34.5	4
0	61148	34.5	3
0	61149	34.5	4
0	61150	34.5	2
0	61151	34.5	3
0	61152	34.5	4
0	61203	34.55	3
0	61204	34.55	4
0	61205	34.55	2
0	61206	34.55	3
0	61207	34.55	4
0	61288	34.6	3
0	61289	34.6	4
0	61290	34.6	2
0	61291	34.6	3
0	61292	34.6	4
0	61294	34.6	3
0	61295	34.6	4
0	61296	34.6	2
0	61297	34.6	3
0	61298	34.6	4
0	61349	34.65	3
0	61350	34.65	4
0	61351	34.65	2
0	61352	34.65	3
0	61353	34.65	4
0	61394	34.7	3
0	61395	34.7	4
0	61396	34.7	2
0	61397	34.7	3
[...]
0	275092	192.3	0
0	275093	192.3	3
0	275094	192.3	3
0	275095	192.3	3
0	275096	192.3	3
0	275097	192.3	0
0	275098	192.3	3
0	275099	192.3	3
0	275144	192.35	3
0	275145	192.35	3
0	275146	192.35	0
0	275147	192.35	3
0	275148	192.35	3
0	275208	192.4	3
0	275209	192.4	3
0	275210	192.4	0
0	275211	192.4	3
0	275212	192.4	3
0	275213	192.4	3
0	275214	192.4	3
0	275215	192.4	0
0	275216	192.4	3
0	275217	192.4	3
0	275285	192.45	3
0	275286	192.45	3
0	275287	192.45	0
0	275288	192.45	3
0	275289	192.45	3
0	275349	192.5	3
0	275350	192.5	3
0	275351	192.5	0
0	275352	192.5	3
0	275353	192.5	3
0	275354	192.5	3
0	275355	192.5	3
0	275356	192.5	0
0	275357	192.5	3
0	275358	192.5	3
0	275408	192.55	3
0	275409	192.55	3
0	275410	192.55	0
0	275411	192.55	3
0	275412	192.55	3
0	275449	192.6	3
0	275450	192.6	3
0	275451	192.6	0
0	275452	192.6	3
0	275453	192.6	3
0	275454	192.6	3
0	275455	192.6	3
0	275456	192.6	0
0	275457	192.6	3
0	275458	192.6	3
0	275526	192.65	3
0	275527	192.65	3
0	275528	192.65	0
0	275529	192.65	3
0	275530	192.65	3
0	275567	192.7	3
0	275568	192.7	3
0	275569	192.7	0
0	275570	192.7	3
0	275571	192.7	3
0	275572	192.7	3
0	275573	192.7	3
0	275574	192.7	0
0	275575	192.7	3
0	275576	192.7	3
0	275621	192.75	3
0	275622	192.75	3
0	275623	192.75	0
0	275624	192.75	3
0	275625	192.75	3
0	275667	192.8	3
0	275668	192.8	3
0	275669	192.8	0
0	275670	192.8	3
0	275671	192.8	3
0	275672	192.8	3
0	275673	192.8	3
0	275674	192.8	0
0	275675	192.8	3
0	275676	192.8	3
0	275744	192.85	3
0	275745	192.85	3
0	275746	192.85	0
0	275747	192.85	3
0	275748	192.85	3
0	275785	192.9	3
0	275786	192.9	3
0	275787	192.9	0
0	275788	192.9	3
0	275789	192.9	3
0	275790	192.9	3
0	275791	192.9	3
0	275792	192.9	0
0	275793	192.9	3
0	275794	192.9	3
0	275839	192.95	3
0	275840	192.95	3
0	275841	192.95	0
0	275842	192.95	3
0	275843	192.95	3
0	275903	193	3
0	275904	193	3
0	275905	193	0
0	275906	193	3
0	275907	193	3
0	275908	193	3
0	275909	193	3
0	275910	193	0
0	275911	193	3
0	275912	193	3
0	275980	193.05	3
0	275981	193.05	3
0	275982	193.05	0
0	275983	193.05	3
0	275984	193.05	3
0	276021	193.1	3
0	276022	193.1	3
0	276023	193.1	0
0	276024	193.1	3
0	276025	193.1	3
0	276026	193.1	3
0	276027	193.1	3
0	276028	193.1	0
0	276029	193.1	3
0	276030	193.1	3
0	276075	193.15	3
0	276076	193.15	3
0	276077	193.15	0
0	276078	193.15	3
0	276079	193.15	3
0	276139	193.2	3
0	276140	193.2	3
0	276141	193.2	0
0	276142	193.2	3
0	276143	193.2	3
0	276144	193.2	3
0	276145	193.2	3
0	276146	193.2	0
0	276147	193.2	3
0	276148	193.2	3
0	276193	193.25	3
0	276194	193.25	3
0	276195	193.25	0
0	276196	193.25	3
0	276197	193.25	3
0	276234	193.3	3
0	276235	193.3	3
0	276236	193.3	0
0	276237	193.3	3
0	276238	193.3	3
0	276239	193.3	3
0	276240	193.3	3
0	276241	193.3	0
0	276242	193.3	3
0	276243	193.3	3
0	276288	193.35	3
0	276289	193.35	3
0	276290	193.35	0
0	276291	193.35	3
0	276292	193.35	3
0	276352	193.4	3
0	276353	193.4	3
0	276354	193.4	0
0	276355	193.4	3
0	276356	193.4	3
0	276357	193.4	3
0	276358	193.4	3
0	276359	193.4	0
0	276360	193.4	3
0	276361	193.4	3
0	276406	193.45	3
0	276407	193.45	3
0	276408	193.45	0
0	276409	193.45	3
0	276410	193.45	3
0	276452	193.5	3
0	276453	193.5	3
0	276454	193.5	0
0	276455	193.5	3
0	276456	193.5	3
0	276457	193.5	3
0	276458	193.5	3
0	276459	193.5	0
0	276460	193.5	3
0	276461	193.5	3
0	276529	193.55	3
0	276530	193.55	3
0	276531	193.55	0
0	276532	193.55	3
0	276533	193.55	3
0	276616	193.6	3
0	276617	193.6	3
0	276618	193.6	0
0	276619	193.6	3
0	276620	193.6	3
0	276621	193.6	3
0	276622	193.6	3
0	276623	193.6	0
0	276624	193.6	3
0	276625	193.6	3
0	276670	193.65	3
0	276671	193.65	3
0	276672	193.65	0
0	276673	193.65	3
0	276674	193.65	3
0	276711	193.7	3
0	276712	193.7	3
0	276713	193.7	0
0	276714	193.7	3
0	276715	193.7	3
0	276716	193.7	3
0	276717	193.7	3
0	276718	193.7	0
0	276719	193.7	3
0	276720	193.7	3
0	276834	193.75	3
0	276835	193.75	3
0	276836	193.75	0
0	276837	193.75	3
0	276838	193.75	3
0	276875	193.8	3
0	276876	193.8	3
0	276877	193.8	0
0	276878	193.8	3
0	276879	193.8	3
0	276880	193.8	3
0	276881	193.8	3
0	276882	193.8	0
0	276883	193.8	3
0	276884	193.8	3
0	276929	193.85	3
0	276930	193.85	3
0	276931	193.85	0
0	276932	193.85	3
0	276933	193.85	3
0	277010	193.9	3
0	277011	193.9	3
0	277012	193.9	0
0	277013	193.9	3
0	277014	193.9	3
0	277015	193.9	3
0	277016	193.9	3
0	277017	193.9	0
0	277018	193.9	3
0	277019	193.9	3
0	277087	193.95	3
0	277088	193.95	3
0	277089	193.95	0
0	277090	193.95	3
0	277091	193.95	3
0	277145	194	3
0	277146	194	3
0	277147	194	0
0	277148	194	3
0	277149	194	3
0	277150	194	3
0	277151	194	3
0	277152	194	0
0	277153	194	3
0	277154	194	3
0	277204	194.05	3
0	277205	194.05	3
0	277206	194.05	0
0	277207	194.05	3
0	277208	194.05	3
0	277268	194.1	3
0	277269	194.1	3
0	277270	194.1	0
0	277271	194.1	3
0	277272	194.1	3
0	277273	194.1	3
0	277274	194.1	3
0	277275	194.1	0
0	277276	194.1	3
0	277277	194.1	3
0	277385	194.15	3
0	277386	194.15	3
0	277387	194.15	0
0	277388	194.15	3
0	277389	194.15	3
0	277426	194.2	3
0	277427	194.2	3
0	277428	194.2	0
0	277429	194.2	3
0	277430	194.2	3
0	277431	194.2	3
0	277432	194.2	3
0	277433	194.2	0
0	277434	194.2	3
0	277435	194.2	3
0	277480	194.25	3
0	277481	194.25	3
0	277482	194.25	0
0	277483	194.25	3
0	277484	194.25	3
0	277590	194.3	3
0	277591	194.3	3
0	277592	194.3	0
0	277593	194.3	3
0	277594	194.3	3
0	277595	194.3	3
0	277596	194.3	3
0	277597	194.3	0
0	277598	194.3	3
0	277599	194.3	3
0	277644	194.35	3
0	277645	194.35	3
0	277646	194.35	0
0	277647	194.35	3
0	277648	194.35	3
0	277685	194.4	3
0	277686	194.4	3
0	277687	194.4	0
0	277688	194.4	3
0	277689	194.4	3
0	277690	194.4	3
0	277691	194.4	3
0	277692	194.4	0
0	277693	194.4	3
0	277694	194.4	3
0	277756	194.45	3
0	277757	194.45	3
0	277758	194.45	0
0	277759	194.45	3
0	277760	194.45	3
0	277820	194.5	3
0	277821	194.5	3
0	277822	194.5	0
0	277823	194.5	3
0	277824	194.5	3
0	277825	194.5	3
0	277826	194.5	3
0	277827	194.5	0
0	277828	194.5	3
0	277829	194.5	3
0	277897	194.55	3
0	277898	194.55	3
0	277899	194.55	0
0	277900	194.55	3
0	277901	194.55	3
0	277938	194.6	3
0	277939	194.6	3
0	277940	194.6	0
0	277941	194.6	3
0	277942	194.6	3
0	277943	194.6	3
0	277944	194.6	3
0	277945	194.6	0
0	277946	194.6	3
0	277947	194.6	3
0	278015	194.65	3
0	278016	194.65	3
0	278017	194.65	0
0	278018	194.65	3
0	278019	194.65	3
0	278125	194.7	3
0	278126	194.7	3
0	278127	194.7	0
0	278128	194.7	3
0	278129	194.7	3
0	278130	194.7	3
0	278131	194.7	3
0	278132	194.7	0
0	278133	194.7	3
0	278134	194.7	3
0	278179	194.75	3
0	278180	194.75	3
0	278181	194.75	0
0	278182	194.75	3
0	278183	194.75	3
0	278220	194.8	3
0	278221	194.8	3
0	278222	194.8	0
0	278223	194.8	3
0	278224	194.8	3
0	278225	194.8	3
0	278226	194.8	3
0	278227	194.8	0
0	278228	194.8	3
0	278229	194.8	3
0	278343	194.85	3
0	278344	194.85	3
0	278345	194.85	0
0	278346	194.85	3
0	278347	194.85	3
0	278384	194.9	3
0	278385	194.9	3
0	278386	194.9	0
0	278387	194.9	3
0	278388	194.9	3
0	278389	194.9	3
0	278390	194.9	3
0	278391	194.9	0
0	278392	194.9	3
0	278393	194.9	3
0	278438	194.95	3
0	278439	194.95	3
0	278440	194.95	0
0	278441	194.95	3
0	278442	194.95	3
0	278502	195	3
0	278503	195	3
0	278504	195	0
0	278505	195	3
0	278506	195	3
0	278507	195	3
0	278508	195	3
0	278509	195	0
0	278510	195	3
0	278511	195	3
0	278579	195.05	3
0	278580	195.05	3
0	278581	195.05	0
0	278582	195.05	3
0	278583	195.05	3
0	278643	195.1	3
0	278644	195.1	3
0	278645	195.1	0
0	278646	195.1	3
0	278647	195.1	3
0	278648	195.1	3
0	278649	195.1	3
0	278650	195.1	0
0	278651	195.1	3
0	278652	195.1	3
0	278697	195.15	3
0	278698	195.15	3
0	278699	195.15	0
0	278700	195.15	3
0	278701	195.15	3
0	278761	195.2	3
0	278762	195.2	3
0	278763	195.2	0
0	278764	195.2	3
0	278765	195.2	3
0	278766	195.2	3
0	278767	195.2	3
0	278768	195.2	0
0	278769	195.2	3
0	278770	195.2	3
0	278884	195.25	3
0	278885	195.25	3
0	278886	195.25	0
0	278887	195.25	3
0	278888	195.25	3
0	278925	195.3	3
0	278926	195.3	3
0	278927	195.3	0
0	278928	195.3	3
0	278929	195.3	3
0	278930	195.3	3
0	278931	195.3	3
0	278932	195.3	0
0	278933	195.3	3
0	278934	195.3	3
0	278979	195.35	3
0	278980	195.35	3
0	278981	195.35	0
0	278982	195.35	3
0	278983	195.35	3
0	279071	195.4	3
0	279072	195.4	3
0	279073	195.4	0
0	279074	195.4	3
0	279075	195.4	3
0	279076	195.4	3
0	279077	195.4	3
0	279078	195.4	0
0	279079	195.4	3
0	279080	195.4	3
0	279125	195.45	3
0	279126	195.45	3
0	279127	195.45	0
0	279128	195.45	3
0	279129	195.45	3
0	279171	195.5	3
0	279172	195.5	3
0	279173	195.5	0
0	279174	195.5	3
0	279175	195.5	3
0	279176	195.5	3
0	279177	195.5	3
0	279178	195.5	0
0	279179	195.5	3
0	279180	195.5	3
0	279225	195.55	3
0	279226	195.55	3
0	279227	195.55	0
0	279228	195.55	3
0	279229	195.55	3
0	279289	195.6	3
0	279290	195.6	3
0	279291	195.6	0
0	279292	195.6	3
0	279293	195.6	3
0	279294	195.6	3
0	279295	195.6	3
0	279296	195.6	0
0	279297	195.6	3
0	279298	195.6	3
0	279371	195.65	3
0	279372	195.65	3
0	279373	195.65	0
0	279374	195.65	3
0	279375	195.65	3
0	279412	195.7	3
0	279413	195.7	3
0	279414	195.7	0
0	279415	195.7	3
0	279416	195.7	3
0	279417	195.7	3
0	279418	195.7	3
0	279419	195.7	0
0	279420	195.7	3
0	279421	195.7	3
0	279489	195.75	3
0	279490	195.75	3
0	279491	195.75	0
0	279492	195.75	3
0	279493	195.75	3
0	279599	195.8	3
0	279600	195.8	3
0	279601	195.8	0
0	279602	195.8	3
0	279603	195.8	3
0	279604	195.8	3
0	279605	195.8	3
0	279606	195.8	0
0	279607	195.8	3
0	279608	195.8	3
0	279653	195.85	3
0	279654	195.85	3
0	279655	195.85	0
0	279656	195.85	3
0	279657	195.85	3
0	279694	195.9	3
0	279695	195.9	3
0	279696	195.9	0
0	279697	195.9	3
0	279698	195.9	3
0	279699	195.9	3
0	279700	195.9	3
0	279701	195.9	0
0	279702	195.9	3
0	279703	195.9	3
0	279794	195.95	3
0	279795	195.95	3
0	279796	195.95	0
0	279797	195.95	3
0	279798	195.95	3
0	279835	196	3
0	279836	196	3
0	279837	196	0
0	279838	196	3
0	279839	196	3
0	279840	196	3
0	279841	196	3
0	279842	196	0
0	279843	196	3
0	279844	196	3
0	279889	196.05	3
0	279890	196.05	3
0	279891	196.05	0
0	279892	196.05	3
0	279893	196.05	3
0	279930	196.1	3
0	279931	196.1	3
0	279932	196.1	0
0	279933	196.1	3
0	279934	196.1	3
0	279935	196.1	3
0	279936	196.1	3
0	279937	196.1	0
0	279938	196.1	3
0	279939	196.1	3
0	280007	196.15	3
0	280008	196.15	3
0	280009	196.15	0
0	280010	196.15	3
0	280011	196.15	3
0	280071	196.2	3
0	280072	196.2	3
0	280073	196.2	0
0	280074	196.2	3
0	280075	196.2	3
0	280076	196.2	3
0	280077	196.2	3
0	280078	196.2	0
0	280079	196.2	3
0	280080	196.2	3
0	280125	196.25	3
0	280126	196.25	3
0	280127	196.25	0
0	280128	196.25	3
0	280129	196.25	3
0	280189	196.3	3
0	280190	196.3	3
0	280191	196.3	0
0	280192	196.3	3
0	280193	196.3	3
0	280194	196.3	3
0	280195	196.3	3
0	280196	196.3	0
0	280197	196.3	3
0	280198	196.3	3
0	280312	196.35	3
0	280313	196.35	3
0	280314	196.35	0
0	280315	196.35	3
0	280316	196.35	3
0	280353	196.4	3
0	280354	196.4	3
0	280355	196.4	0
0	280356	196.4	3
0	280357	196.4	3
0	280358	196.4	3
0	280359	196.4	3
0	280360	196.4	0
0	280361	196.4	3
0	280362	196.4	3
0	280407	196.45	3
0	280408	196.45	3
0	280409	196.45	0
0	280410	196.45	3
0	280411	196.45	3
0	280494	196.5	3
0	280495	196.5	3
0	280496	196.5	0
0	280497	196.5	3
0	280498	196.5	3
0	280499	196.5	3
0	280500	196.5	3
0	280501	196.5	0
0	280502	196.5	3
0	280503	196.5	3
0	280548	196.55	3
0	280549	196.55	3
0	280550	196.55	0
0	280551	196.55	3
0	280552	196.55	3
0	280612	196.6	3
0	280613	196.6	3
0	280614	196.6	0
0	280615	196.6	3
0	280616	196.6	3
0	280617	196.6	3
0	280618	196.6	3
0	280619	196.6	0
0	280620	196.6	3
0	280621	196.6	3
0	280666	196.65	3
0	280667	196.65	3
0	280668	196.65	0
0	280669	196.65	3
0	280670	196.65	3
0	280730	196.7	3
0	280731	196.7	3
0	280732	196.7	0
0	280733	196.7	3
0	280734	196.7	3
0	280735	196.7	3
0	280736	196.7	3
0	280737	196.7	0
0	280738	196.7	3
0	280739	196.7	3
0	280830	196.75	3
0	280831	196.75	3
0	280832	196.75	0
0	280833	196.75	3
0	280834	196.75	3
0	280871	196.8	3
0	280872	196.8	3
0	280873	196.8	0
0	280874	196.8	3
0	280875	196.8	3
0	280876	196.8	3
0	280877	196.8	3
0	280878	196.8	0
0	280879	196.8	3
0	280880	196.8	3
0	280948	196.85	3
0	280949	196.85	3
0	280950	196.85	0
0	280951	196.85	3
0	280952	196.85	3
0	281058	196.9	3
0	281059	196.9	3
0	281060	196.9	0
0	281061	196.9	3
0	281062	196.9	3
0	281063	196.9	3
0	281064	196.9	3
0	281065	196.9	0
0	281066	196.9	3
0	281067	196.9	3
0	281112	196.95	3
0	281113	196.95	3
0	281114	196.95	0
0	281115	196.95	3
0	281116	196.95	3
0	281158	197	3
0	281159	197	3
0	281160	197	0
0	281161	197	3
0	281162	197	3
0	281163	197	3
0	281164	197	3
0	281165	197	0
0	281166	197	3
0	281167	197	3
0	281258	197.05	3
0	281259	197.05	3
0	281260	197.05	0
0	281261	197.05	3
0	281262	197.05	3
0	281316	197.1	3
0	281317	197.1	3
0	281318	197.1	0
0	281319	197.1	3
0	281320	197.1	3
0	281321	197.1	3
0	281322	197.1	3
0	281323	197.1	0
0	281324	197.1	3
0	281325	197.1	3
0	281375	197.15	3
0	281376	197.15	3
0	281377	197.15	0
0	281378	197.15	3
0	281379	197.15	3
0	281416	197.2	3
0	281417	197.2	3
0	281418	197.2	0
0	281419	197.2	3
0	281420	197.2	3
0	281421	197.2	3
0	281422	197.2	3
0	281423	197.2	0
0	281424	197.2	3
0	281425	197.2	3
0	281516	197.25	3
0	281517	197.25	3
0	281518	197.25	0
0	281519	197.25	3
0	281520	197.25	3
0	281580	197.3	3
0	281581	197.3	3
0	281582	197.3	0
0	281583	197.3	3
0	281584	197.3	3
0	281585	197.3	3
0	281586	197.3	3
0	281587	197.3	0
0	281588	197.3	3
0	281589	197.3	3
0	281634	197.35	3
0	281635	197.35	3
0	281636	197.35	0
0	281637	197.35	3
0	281638	197.35	3
0	281698	197.4	3
0	281699	197.4	3
0	281700	197.4	0
0	281701	197.4	3
0	281702	197.4	3
0	281703	197.4	3
0	281704	197.4	3
0	281705	197.4	0
0	281706	197.4	3
0	281707	197.4	3
0	281803	197.45	3
0	281804	197.45	3
0	281805	197.45	0
0	281806	197.45	3
0	281807	197.45	3
0	281844	197.5	3
0	281845	197.5	3
0	281846	197.5	0
0	281847	197.5	3
0	281848	197.5	3
0	281849	197.5	3
0	281850	197.5	3
0	281851	197.5	0
0	281852	197.5	3
0	281853	197.5	3
0	281898	197.55	3
0	281899	197.55	3
0	281900	197.55	0
0	281901	197.55	3
0	281902	197.55	3
0	281985	197.6	3
0	281986	197.6	3
0	281987	197.6	0
0	281988	197.6	3
0	281989	197.6	3
0	281990	197.6	3
0	281991	197.6	3
0	281992	197.6	0
0	281993	197.6	3
0	281994	197.6	3
0	282044	197.65	3
0	282045	197.65	3
0	282046	197.65	0
0	282047	197.65	3
0	282048	197.65	3
0	282085	197.7	3
0	282086	197.7	3
0	282087	197.7	0
0	282088	197.7	3
0	282089	197.7	3
0	282090	197.7	3
0	282091	197.7	3
0	282092	197.7	0
0	282093	197.7	3
0	282094	197.7	3
0	282139	197.75	3
0	282140	197.75	3
0	282141	197.75	0
0	282142	197.75	3
0	282143	197.75	3
0	282203	197.8	3
0	282204	197.8	3
0	282205	197.8	0
0	282206	197.8	3
0	282207	197.8	3
0	282208	197.8	3
0	282209	197.8	3
0	282210	197.8	0
0	282211	197.8	3
0	282212	197.8	3
0	282257	197.85	3
0	282258	197.85	3
0	282259	197.85	0
0	282260	197.85	3
0	282261	197.85	3
0	282298	197.9	3
0	282299	197.9	3
0	282300	197.9	0
0	282301	197.9	3
0	282302	197.9	3
0	282303	197.9	3
0	282304	197.9	3
0	282305	197.9	0
0	282306	197.9	3
0	282307	197.9	3
0	282375	197.95	3
0	282376	197.95	3
0	282377	197.95	0
0	282378	197.95	3
0	282379	197.95	3
0	282462	198	3
0	282463	198	3
0	282464	198	0
0	282465	198	3
0	282466	198	3
0	282467	198	3
0	282468	198	3
0	282469	198	0
0	282470	198	3
0	282471	198	3
0	282516	198.05	3
0	282517	198.05	3
0	282518	198.05	0
0	282519	198.05	3
0	282520	198.05	3
0	282557	198.1	3
0	282558	198.1	3
0	282559	198.1	0
0	282560	198.1	3
0	282561	198.1	3
0	282562	198.1	3
0	282563	198.1	3
0	282564	198.1	0
0	282565	198.1	3
0	282566	198.1	3
0	282657	198.15	3
0	282658	198.15	3
0	282659	198.15	0
0	282660	198.15	3
0	282661	198.15	3
0	282698	198.2	3
0	282699	198.2	3
0	282700	198.2	0
0	282701	198.2	3
0	282702	198.2	3
0	282703	198.2	3
0	282704	198.2	3
0	282705	198.2	0
0	282706	198.2	3
0	282707	198.2	3
0	282752	198.25	3
0	282753	198.25	3
0	282754	198.25	0
0	282755	198.25	3
0	282756	198.25	3
0	282793	198.3	3
0	282794	198.3	3
0	282795	198.3	0
0	282796	198.3	3
0	282797	198.3	3
0	282798	198.3	3
0	282799	198.3	3
0	282800	198.3	0
0	282801	198.3	3
0	282802	198.3	3
0	282893	198.35	3
0	282894	198.35	3
0	282895	198.35	0
0	282896	198.35	3
0	282897	198.35	3
0	282934	198.4	3
0	282935	198.4	3
0	282936	198.4	0
0	282937	198.4	3
0	282938	198.4	3
0	282939	198.4	3
0	282940	198.4	3
0	282941	198.4	0
0	282942	198.4	3
0	282943	198.4	3
0	282988	198.45	3
0	282989	198.45	3
0	282990	198.45	0
0	282991	198.45	3
0	282992	198.45	3
0	283069	198.5	3
0	283070	198.5	3
0	283071	198.5	0
0	283072	198.5	3
0	283073	198.5	3
0	283074	198.5	3
0	283075	198.5	3
0	283076	198.5	0
0	283077	198.5	3
0	283078	198.5	3
0	283169	198.55	3
0	283170	198.55	3
0	283171	198.55	0
0	283172	198.55	3
0	283173	198.55	3
0	283210	198.6	3
0	283211	198.6	3
0	283212	198.6	0
0	283213	198.6	3
0	283214	198.6	3
0	283215	198.6	3
0	283216	198.6	3
0	283217	198.6	0
0	283218	198.6	3
0	283219	198.6	3
0	283264	198.65	3
0	283265	198.65	3
0	283266	198.65	0
0	283267	198.65	3
0	283268	198.65	3
0	283351	198.7	3
0	283352	198.7	3
0	283353	198.7	0
0	283354	198.7	3
0	283355	198.7	3
0	283356	198.7	3
0	283357	198.7	3
0	283358	198.7	0
0	283359	198.7	3
0	283360	198.7	3
0	283405	198.75	3
0	283406	198.75	3
0	283407	198.75	0
0	283408	198.75	3
0	283409	198.75	3
0	283446	198.8	3
0	283447	198.8	3
0	283448	198.8	0
0	283449	198.8	3
0	283450	198.8	3
0	283451	198.8	3
0	283452	198.8	3
0	283453	198.8	0
0	283454	198.8	3
0	283455	198.8	3
0	283523	198.85	3
0	283524	198.85	3
0	283525	198.85	0
0	283526	198.85	3
0	283527	198.85	3
0	283615	198.9	3
0	283616	198.9	3
0	283617	198.9	0
0	283618	198.9	3
0	283619	198.9	3
0	283620	198.9	3
0	283621	198.9	3
0	283622	198.9	0
0	283623	198.9	3
0	283624	198.9	3
0	283669	198.95	3
0	283670	198.95	3
0	283671	198.95	0
0	283672	198.95	3
0	283673	198.95	3
0	283715	199	3
0	283716	199	3
0	283717	199	0
0	283718	199	3
0	283719	199	3
0	283720	199	3
0	283721	199	3
0	283722	199	0
0	283723	199	3
0	283724	199	3
0	283797	199.05	3
0	283798	199.05	3
0	283799	199.05	0
0	283800	199.05	3
0	283801	199.05	3
0	283884	199.1	3
0	283885	199.1	3
0	283886	199.1	0
0	283887	199.1	3
0	283888	199.1	3
0	283889	199.1	3
0	283890	199.1	3
0	283891	199.1	0
0	283892	199.1	3
0	283893	199.1	3
0	283938	199.15	3
0	283939	199.15	3
0	283940	199.15	0
0	283941	199.15	3
0	283942	199.15	3
0	283979	199.2	3
0	283980	199.2	3
0	283981	199.2	0
0	283982	199.2	3
0	283983	199.2	3
0	283984	199.2	3
0	283985	199.2	3
0	283986	199.2	0
0	283987	199.2	3
0	283988	199.2	3
0	284079	199.25	3
0	284080	199.25	3
0	284081	199.25	0
0	284082	199.25	3
0	284083	199.25	3
0	284120	199.3	3
0	284121	199.3	3
0	284122	199.3	0
0	284123	199.3	3
0	284124	199.3	3
0	284125	199.3	3
0	284126	199.3	3
0	284127	199.3	0
0	284128	199.3	3
0	284129	199.3	3
0	284174	199.35	3
0	284175	199.35	3
0	284176	199.35	0
0	284177	199.35	3
0	284178	199.35	3
0	284215	199.4	3
0	284216	199.4	3
0	284217	199.4	0
0	284218	199.4	3
0	284219	199.4	3
0	284220	199.4	3
0	284221	199.4	3
0	284222	199.4	0
0	284223	199.4	3
0	284224	199.4	3
0	284292	199.45	3
0	284293	199.45	3
0	284294	199.45	0
0	284295	199.45	3
0	284296	199.45	3
0	284333	199.5	3
0	284334	199.5	3
0	284335	199.5	0
0	284336	199.5	3
0	284337	199.5	3
0	284338	199.5	3
0	284339	199.5	3
0	284340	199.5	0
0	284341	199.5	3
0	284342	199.5	3
0	284387	199.55	3
0	284388	199.55	3
0	284389	199.55	0
0	284390	199.55	3
0	284391	199.55	3
0	284451	199.6	3
0	284452	199.6	3
0	284453	199.6	0
0	284454	199.6	3
0	284455	199.6	3
0	284456	199.6	3
0	284457	199.6	3
0	284458	199.6	0
0	284459	199.6	3
0	284460	199.6	3
0	284551	199.65	3
0	284552	199.65	3
0	284553	199.65	0
0	284554	199.65	3
0	284555	199.65	3
0	284592	199.7	3
0	284593	199.7	3
0	284594	199.7	0
0	284595	199.7	3
0	284596	199.7	3
0	284597	199.7	3
0	284598	199.7	3
0	284599	199.7	0
0	284600	199.7	3
0	284601	199.7	3
0	284646	199.75	3
0	284647	199.75	3
0	284648	199.75	0
0	284649	199.75	3
0	284650	199.75	3
0	284733	199.8	3
0	284734	199.8	3
0	284735	199.8	0
0	284736	199.8	3
0	284737	199.8	3
0	284738	199.8	3
0	284739	199.8	3
0	284740	199.8	0
0	284741	199.8	3
0	284742	199.8	3
0	284787	199.85	3
0	284788	199.85	3
0	284789	199.85	0
0	284790	199.85	3
0	284791	199.85	3
0	284828	199.9	3
0	284829	199.9	3
0	284830	199.9	0
0	284831	199.9	3
0	284832	199.9	3
0	284833	199.9	3
0	284834	199.9	3
0	284835	199.9	0
0	284836	199.9	3
0	284837	199.9	3
0	284882	199.95	3
0	284883	199.95	3
0	284884	199.95	0
0	284885	199.95	3
0	284886	199.95	3
0	284946	200	3
0	284947	200	3
0	284948	200	0
0	284949	200	3
0	284950	200	3
0	284951	200	3
0	284952	200	3
0	284953	200	0
0	284954	200	3
0	284955	200	3

