version 2
run Cmov-0-20191021-02:49:02-13816
attr configname Cmov
attr datetime 20191021-02:49:02
attr experiment Cmov
attr inifile GwSimV1.ini
attr iterationvars ""
attr iterationvarsf ""
attr measurement ""
attr network NetworkTormV2
attr processid 13816
attr repetition 0
attr replication #0
attr resultdir results
attr runnumber 0
attr seedset 0
param **.mobility.traceFile "\"AllPaths/sPaths/Cmov.movements\""
param **.numNodes 5
param **.application.dataGenerationInterval 1s
param **.application.dataSizeInBytes 10
param **.application.ttl 999999s
param **application.nodesThatGen false
param **application.nodesGenMsg "\"\""
param **application.startMultipleMsg false
param **application.numMultipleMsg 100
param **application.hopsListSize 50
param **.application.endGeneratingMsg 99s
param **.routingLayer "\"RoutingLqeGw\""
param **.routing.maximumCacheSize 5000byte
param **.routing.maximumHopCount 25
param **.routing.useTTL false
param **.routing.waitBFsend 0.1
param **.routing.max_age 999999s
param **.routing.gateway_list "\"\""
param **.routing.actual_gateway "\"\""
param **.routing.gwCheckPeriod 5s
param **.neighboring.resetGPeriod 999s
param **.wirelessIfc.wirelessRange 40m
param **.numNodes 2
param **.application.usedRNG 1
param **.application.dataGenerationInterval 1s
param **.application.dataSizeInBytes 10
param **.application.ttl 999999s
param **application.destinationAddr "\"Wf:00:00:00:00:02\""
param **application.destinationBTAddr "\"Bt:00:00:00:00:02\""
param **application.nodesThatGen true
param **application.nodesGenMsg "\"0\""
param **application.startMultipleMsg true
param **application.numMultipleMsg 100
param **application.hopsListSize 50
param **.application.endGeneratingMsg 999999s
param **.routingLayer "\"RoutingLqeGw\""
param **.routing.maximumCacheSize 5000byte
param **.routing.maximumHopCount 25
param **.routing.useTTL false
param **.routing.waitBFsend 0.1
param **.routing.max_age 999999s
param **.routing.gateway_list "\"\""
param **.routing.actual_gateway "\"\""
param **.routing.gwCheckPeriod 5s
param **.neighboring.antiEntropyInterval 500ms
param **.neighboring.maximumRandomBackoffDuration 1s
param **.neighboring.delayPerDataMsg 0.1
param **neighboring.usedRNG 2
param **.neighboring.GWAddr "\"Wf:00:00:00:00:02\""
param **.neighboring.sendWifiFirst true
param **.neighboring.maxLengthGraph 20
param **.neighboring.max_age 999999s
param **.neighboring.max_absent_time 1s
param **.wirelessIfc.wirelessRange 40m
param **.wirelessIfc.neighbourScanInterval 50ms
param **.wirelessIfc.bandwidthBitRate 100000bps
param **.wirelessIfc.wirelessHeaderSize 32byte
param **.wirelessIfc.minSSI -90
param **.wirelessIfc.limitQueueTime 400ms
param **.wirelessIfc.my_limit_rate 0bps
param **.bluetoothIfc.wirelessRange 40m
param **.bluetoothIfc.neighbourScanInterval 100ms
param **.bluetoothIfc.bandwidthBitRate 100000bps
param **.bluetoothIfc.wirelessHeaderSize 16byte
param **.bluetoothIfc.minSSI -90
param **.mobilityType "\"BonnMotionMobility\""
param **.mobility.traceFile "\"paths/Moves2.movements\""
param **.mobility.is3D false
param **.mobility.nodeId -1

vector 0 NetworkTormV2 neighbourhoodSize:vector ETV
attr source neighbourhoodSize
vector 1 NetworkTormV2 deliveryRatio:vector ETV
attr source sum(totalDataBytesReceived)/sum(totalDataBytesReceivableByAllNodes)
vector 2 NetworkTormV2 dataBytesReceivedSum:vector ETV
attr source sum(dataBytesReceived)
vector 3 NetworkTormV2 totalBytesReceivedSum:vector ETV
attr source sum(totalBytesReceived)
0	16	0.05	4
0	17	0.05	4
0	18	0.05	4
0	19	0.05	4
0	20	0.05	4
0	62	0.1	4
0	64	0.1	4
0	66	0.1	4
0	68	0.1	4
0	70	0.1	4
0	72	0.1	4
0	73	0.1	4
0	74	0.1	4
0	75	0.1	4
0	76	0.1	4
0	132	0.15	4
0	133	0.15	4
0	134	0.15	4
0	135	0.15	4
0	136	0.15	4
0	177	0.2	4
0	178	0.2	4
0	179	0.2	4
0	180	0.2	4
0	181	0.2	4
0	183	0.2	4
0	184	0.2	4
0	185	0.2	4
0	186	0.2	4
0	187	0.2	4
0	238	0.25	4
0	239	0.25	4
0	240	0.25	4
0	241	0.25	4
0	242	0.25	4
0	283	0.3	4
0	284	0.3	4
0	285	0.3	4
0	286	0.3	4
0	287	0.3	4
0	289	0.3	4
0	290	0.3	4
0	291	0.3	4
0	292	0.3	4
0	293	0.3	4
0	344	0.35	4
0	345	0.35	4
0	346	0.35	4
0	347	0.35	4
0	348	0.35	4
0	389	0.4	4
0	390	0.4	4
0	391	0.4	4
0	392	0.4	4
0	393	0.4	4
0	395	0.4	4
0	396	0.4	4
0	397	0.4	4
0	398	0.4	4
0	399	0.4	4
0	450	0.45	4
0	451	0.45	4
0	452	0.45	4
0	453	0.45	4
0	454	0.45	4
0	495	0.5	4
0	496	0.5	4
0	497	0.5	4
0	498	0.5	4
0	499	0.5	4
0	501	0.5	4
0	502	0.5	4
0	503	0.5	4
0	504	0.5	4
0	505	0.5	4
0	556	0.55	4
0	557	0.55	4
0	558	0.55	4
0	559	0.55	4
0	560	0.55	4
0	601	0.6	4
0	602	0.6	4
0	603	0.6	4
0	604	0.6	4
0	605	0.6	4
0	607	0.6	4
0	608	0.6	4
0	609	0.6	4
0	610	0.6	4
0	611	0.6	4
0	662	0.65	4
0	663	0.65	4
0	664	0.65	4
0	665	0.65	4
0	666	0.65	4
0	707	0.7	4
0	708	0.7	4
0	709	0.7	4
0	710	0.7	4
0	711	0.7	4
0	713	0.7	4
0	714	0.7	4
0	715	0.7	4
0	716	0.7	4
0	717	0.7	4
0	768	0.75	4
0	769	0.75	4
0	770	0.75	4
0	771	0.75	4
0	772	0.75	4
0	813	0.8	4
0	814	0.8	4
0	815	0.8	4
0	816	0.8	4
0	817	0.8	4
0	819	0.8	4
0	820	0.8	4
0	821	0.8	4
0	822	0.8	4
0	823	0.8	4
0	874	0.85	4
0	875	0.85	4
0	876	0.85	4
0	877	0.85	4
0	878	0.85	4
0	919	0.9	4
0	920	0.9	4
0	921	0.9	4
0	922	0.9	4
0	923	0.9	4
0	925	0.9	4
0	926	0.9	4
0	927	0.9	4
0	928	0.9	4
0	929	0.9	4
0	980	0.95	4
0	981	0.95	4
0	982	0.95	4
0	983	0.95	4
0	984	0.95	4
0	1025	1	4
0	1026	1	4
0	1027	1	4
0	1028	1	4
0	1029	1	4
0	1031	1	4
0	1032	1	4
0	1033	1	4
0	1034	1	4
0	1035	1	4
0	1086	1.05	4
0	1087	1.05	4
0	1088	1.05	4
0	1089	1.05	4
0	1090	1.05	4
0	1136	1.1	4
0	1137	1.1	4
0	1138	1.1	4
0	1139	1.1	4
0	1140	1.1	4
0	1142	1.1	4
0	1143	1.1	4
0	1144	1.1	4
0	1145	1.1	4
0	1146	1.1	4
0	1413	1.15	4
0	1414	1.15	4
0	1415	1.15	4
0	1416	1.15	4
0	1417	1.15	4
0	1689	1.2	4
0	1690	1.2	4
0	1691	1.2	4
0	1692	1.2	4
0	1693	1.2	4
0	1695	1.2	4
0	1696	1.2	4
0	1697	1.2	4
0	1698	1.2	4
0	1699	1.2	4
0	1750	1.25	4
0	1751	1.25	4
0	1752	1.25	4
0	1753	1.25	4
0	1754	1.25	4
0	1795	1.3	4
0	1796	1.3	4
0	1797	1.3	4
0	1798	1.3	4
0	1799	1.3	4
0	1801	1.3	4
0	1802	1.3	4
0	1803	1.3	4
0	1804	1.3	4
0	1805	1.3	4
0	1856	1.35	4
0	1857	1.35	4
0	1858	1.35	4
0	1859	1.35	4
0	1860	1.35	4
0	1901	1.4	4
0	1902	1.4	4
0	1903	1.4	4
0	1904	1.4	4
0	1905	1.4	4
0	1907	1.4	4
0	1908	1.4	4
0	1909	1.4	4
0	1910	1.4	4
0	1911	1.4	4
0	1962	1.45	4
0	1963	1.45	4
0	1964	1.45	4
0	1965	1.45	4
0	1966	1.45	4
0	2007	1.5	4
0	2008	1.5	4
0	2009	1.5	4
0	2010	1.5	4
0	2011	1.5	4
0	2013	1.5	4
0	2014	1.5	4
0	2015	1.5	4
0	2016	1.5	4
0	2017	1.5	4
0	2068	1.55	4
0	2069	1.55	4
0	2070	1.55	4
0	2071	1.55	4
0	2072	1.55	4
0	2113	1.6	4
0	2114	1.6	4
0	2115	1.6	4
0	2116	1.6	4
0	2117	1.6	4
0	2119	1.6	4
0	2120	1.6	4
0	2121	1.6	4
0	2122	1.6	4
0	2123	1.6	4
0	2174	1.65	4
0	2175	1.65	4
0	2176	1.65	4
0	2177	1.65	4
0	2178	1.65	4
0	2446	1.7	4
0	2447	1.7	4
0	2448	1.7	4
0	2449	1.7	4
0	2450	1.7	4
0	2452	1.7	4
0	2453	1.7	4
0	2454	1.7	4
0	2455	1.7	4
0	2456	1.7	4
0	2711	1.75	4
0	2712	1.75	4
0	2713	1.75	4
0	2714	1.75	4
0	2715	1.75	4
0	2756	1.8	4
0	2757	1.8	4
0	2758	1.8	4
0	2759	1.8	4
0	2760	1.8	4
0	2762	1.8	4
0	2763	1.8	4
0	2764	1.8	4
0	2765	1.8	4
0	2766	1.8	4
0	2840	1.85	4
0	2841	1.85	4
0	2842	1.85	4
0	2843	1.85	4
0	2844	1.85	4
0	2885	1.9	4
0	2886	1.9	4
0	2887	1.9	4
0	2888	1.9	4
0	2889	1.9	4
0	2891	1.9	4
0	2892	1.9	4
0	2893	1.9	4
0	2894	1.9	4
0	2895	1.9	4
0	2946	1.95	4
0	2947	1.95	4
0	2948	1.95	4
0	2949	1.95	4
0	2950	1.95	4
0	2991	2	4
0	2992	2	4
0	2993	2	4
0	2994	2	4
0	2995	2	4
0	2997	2	4
0	2998	2	4
0	2999	2	4
0	3000	2	4
0	3001	2	4
0	3052	2.05	4
0	3053	2.05	4
0	3054	2.05	4
0	3055	2.05	4
0	3056	2.05	4
0	3102	2.1	4
0	3103	2.1	4
0	3104	2.1	4
0	3105	2.1	4
0	3106	2.1	4
0	3108	2.1	4
0	3109	2.1	4
0	3110	2.1	4
0	3111	2.1	4
0	3112	2.1	4
0	3168	2.15	4
0	3169	2.15	4
0	3170	2.15	4
0	3171	2.15	4
0	3172	2.15	4
0	3213	2.2	4
0	3214	2.2	4
0	3215	2.2	4
0	3216	2.2	4
0	3217	2.2	4
0	3219	2.2	4
0	3220	2.2	4
0	3221	2.2	4
0	3222	2.2	4
0	3223	2.2	4
0	3483	2.25	4
0	3484	2.25	4
0	3485	2.25	4
0	3486	2.25	4
0	3487	2.25	4
0	3702	2.3	4
0	3703	2.3	4
0	3704	2.3	4
0	3705	2.3	4
0	3706	2.3	4
0	3708	2.3	4
0	3709	2.3	4
0	3710	2.3	4
0	3711	2.3	4
0	3712	2.3	4
0	3763	2.35	4
0	3764	2.35	4
0	3765	2.35	4
0	3766	2.35	4
0	3767	2.35	4
0	3808	2.4	4
0	3809	2.4	4
0	3810	2.4	4
0	3811	2.4	4
0	3812	2.4	4
0	3814	2.4	4
0	3815	2.4	4
0	3816	2.4	4
0	3817	2.4	4
0	3818	2.4	4
0	3869	2.45	4
0	3870	2.45	4
0	3871	2.45	4
0	3872	2.45	4
0	3873	2.45	4
0	3914	2.5	4
0	3915	2.5	4
0	3916	2.5	4
0	3917	2.5	4
0	3918	2.5	4
0	3920	2.5	4
0	3921	2.5	4
0	3922	2.5	4
0	3923	2.5	4
0	3924	2.5	4
0	3975	2.55	4
0	3976	2.55	4
0	3977	2.55	4
0	3978	2.55	4
0	3979	2.55	4
0	4020	2.6	4
0	4021	2.6	4
0	4022	2.6	4
0	4023	2.6	4
0	4024	2.6	4
0	4026	2.6	4
0	4027	2.6	4
0	4028	2.6	4
0	4029	2.6	4
0	4030	2.6	4
0	4081	2.65	4
0	4082	2.65	4
0	4083	2.65	4
0	4084	2.65	4
0	4085	2.65	4
0	4126	2.7	4
0	4127	2.7	4
0	4128	2.7	4
0	4129	2.7	4
0	4130	2.7	4
0	4132	2.7	4
0	4133	2.7	4
0	4134	2.7	4
0	4135	2.7	4
0	4136	2.7	4
0	4187	2.75	4
0	4188	2.75	4
0	4189	2.75	4
0	4190	2.75	4
0	4191	2.75	4
0	4432	2.8	4
0	4433	2.8	4
0	4434	2.8	4
0	4435	2.8	4
0	4436	2.8	4
0	4438	2.8	4
0	4439	2.8	4
0	4440	2.8	4
0	4441	2.8	4
0	4442	2.8	4
0	4619	2.85	4
0	4620	2.85	4
0	4621	2.85	4
0	4622	2.85	4
0	4623	2.85	4
0	4664	2.9	4
0	4665	2.9	4
0	4666	2.9	4
0	4667	2.9	4
0	4668	2.9	4
0	4670	2.9	4
0	4671	2.9	4
0	4672	2.9	4
0	4673	2.9	4
0	4674	2.9	4
0	4748	2.95	4
0	4749	2.95	4
0	4750	2.95	4
0	4751	2.95	4
0	4752	2.95	4
0	4793	3	4
0	4794	3	4
0	4795	3	4
0	4796	3	4
0	4797	3	4
0	4799	3	4
0	4800	3	4
0	4801	3	4
0	4802	3	4
0	4803	3	4
0	4854	3.05	4
0	4855	3.05	4
0	4856	3.05	4
0	4857	3.05	4
0	4858	3.05	4
0	4904	3.1	4
0	4905	3.1	4
0	4906	3.1	4
0	4907	3.1	4
0	4908	3.1	4
0	4910	3.1	4
0	4911	3.1	4
0	4912	3.1	4
0	4913	3.1	4
0	4914	3.1	4
0	4970	3.15	4
0	4971	3.15	4
0	4972	3.15	4
0	4973	3.15	4
0	4974	3.15	4
0	5015	3.2	4
0	5016	3.2	4
0	5017	3.2	4
0	5018	3.2	4
0	5019	3.2	4
0	5021	3.2	4
0	5022	3.2	4
0	5023	3.2	4
0	5024	3.2	4
0	5025	3.2	4
0	5076	3.25	4
0	5077	3.25	4
0	5078	3.25	4
0	5079	3.25	4
0	5080	3.25	4
0	5121	3.3	4
0	5122	3.3	4
0	5123	3.3	4
0	5124	3.3	4
0	5125	3.3	4
0	5127	3.3	4
0	5128	3.3	4
0	5129	3.3	4
0	5130	3.3	4
0	5131	3.3	4
0	5411	3.35	4
0	5412	3.35	4
0	5413	3.35	4
0	5414	3.35	4
0	5415	3.35	4
0	5543	3.4	4
0	5544	3.4	4
0	5545	3.4	4
0	5546	3.4	4
0	5547	3.4	4
0	5549	3.4	4
0	5550	3.4	4
0	5551	3.4	4
0	5552	3.4	4
0	5553	3.4	4
0	5621	3.45	4
0	5622	3.45	4
0	5623	3.45	4
0	5624	3.45	4
0	5625	3.45	4
0	5712	3.5	4
0	5713	3.5	4
0	5714	3.5	4
0	5715	3.5	4
0	5716	3.5	4
0	5718	3.5	4
0	5719	3.5	4
0	5720	3.5	4
0	5721	3.5	4
0	5722	3.5	4
0	5773	3.55	4
0	5774	3.55	4
0	5775	3.55	4
0	5776	3.55	4
0	5777	3.55	4
0	5841	3.6	4
0	5842	3.6	4
0	5843	3.6	4
0	5844	3.6	4
0	5845	3.6	4
0	5847	3.6	4
0	5848	3.6	4
0	5849	3.6	4
0	5850	3.6	4
0	5851	3.6	4
0	5902	3.65	4
0	5903	3.65	4
0	5904	3.65	4
0	5905	3.65	4
0	5906	3.65	4
0	5947	3.7	4
0	5948	3.7	4
0	5949	3.7	4
0	5950	3.7	4
0	5951	3.7	4
0	5953	3.7	4
0	5954	3.7	4
0	5955	3.7	4
0	5956	3.7	4
0	5957	3.7	4
0	6008	3.75	4
0	6009	3.75	4
0	6010	3.75	4
0	6011	3.75	4
0	6012	3.75	4
0	6053	3.8	4
0	6054	3.8	4
0	6055	3.8	4
0	6056	3.8	4
0	6057	3.8	4
0	6059	3.8	4
0	6060	3.8	4
0	6061	3.8	4
0	6062	3.8	4
0	6063	3.8	4
0	6137	3.85	4
0	6138	3.85	4
0	6139	3.85	4
0	6140	3.85	4
0	6141	3.85	4
0	6411	3.9	4
0	6412	3.9	4
0	6413	3.9	4
0	6414	3.9	4
0	6415	3.9	4
0	6417	3.9	4
0	6418	3.9	4
0	6419	3.9	4
0	6420	3.9	4
0	6421	3.9	4
0	6565	3.95	4
0	6566	3.95	4
0	6567	3.95	4
0	6568	3.95	4
0	6569	3.95	4
0	6650	4	4
0	6651	4	4
0	6652	4	4
0	6653	4	4
0	6654	4	4
0	6656	4	4
0	6657	4	4
0	6658	4	4
0	6659	4	4
0	6660	4	4
0	6751	4.05	4
0	6752	4.05	4
0	6753	4.05	4
0	6754	4.05	4
0	6755	4.05	4
0	6801	4.1	4
0	6802	4.1	4
0	6803	4.1	4
0	6804	4.1	4
0	6805	4.1	4
0	6807	4.1	4
0	6808	4.1	4
0	6809	4.1	4
0	6810	4.1	4
0	6811	4.1	4
0	6872	4.15	4
0	6873	4.15	4
0	6874	4.15	4
0	6875	4.15	4
0	6876	4.15	4
0	6917	4.2	4
0	6918	4.2	4
0	6919	4.2	4
0	6920	4.2	4
0	6921	4.2	4
0	6923	4.2	4
0	6924	4.2	4
0	6925	4.2	4
0	6926	4.2	4
0	6927	4.2	4
0	6978	4.25	4
0	6979	4.25	4
0	6980	4.25	4
0	6981	4.25	4
0	6982	4.25	4
0	7023	4.3	4
0	7024	4.3	4
0	7025	4.3	4
0	7026	4.3	4
0	7027	4.3	4
0	7029	4.3	4
0	7030	4.3	4
0	7031	4.3	4
0	7032	4.3	4
0	7033	4.3	4
0	7084	4.35	4
0	7085	4.35	4
0	7086	4.35	4
0	7087	4.35	4
0	7088	4.35	4
0	7134	4.4	4
0	7135	4.4	4
0	7136	4.4	4
0	7137	4.4	4
0	7138	4.4	4
0	7140	4.4	4
0	7141	4.4	4
0	7142	4.4	4
0	7143	4.4	4
0	7144	4.4	4
0	7397	4.45	4
0	7398	4.45	4
0	7399	4.45	4
0	7400	4.45	4
0	7401	4.45	4
0	7526	4.5	4
0	7527	4.5	4
0	7528	4.5	4
0	7529	4.5	4
0	7530	4.5	4
0	7532	4.5	4
0	7533	4.5	4
0	7534	4.5	4
0	7535	4.5	4
0	7536	4.5	4
0	7587	4.55	4
0	7588	4.55	4
0	7589	4.55	4
0	7590	4.55	4
0	7591	4.55	4
0	7655	4.6	4
0	7656	4.6	4
0	7657	4.6	4
0	7658	4.6	4
0	7659	4.6	4
0	7661	4.6	4
0	7662	4.6	4
0	7663	4.6	4
0	7664	4.6	4
0	7665	4.6	4
0	7716	4.65	4
0	7717	4.65	4
0	7718	4.65	4
0	7719	4.65	4
0	7720	4.65	4
0	7761	4.7	4
0	7762	4.7	4
0	7763	4.7	4
0	7764	4.7	4
0	7765	4.7	4
0	7767	4.7	4
0	7768	4.7	4
0	7769	4.7	4
0	7770	4.7	4
0	7771	4.7	4
0	7822	4.75	4
0	7823	4.75	4
0	7824	4.75	4
0	7825	4.75	4
0	7826	4.75	4
0	7867	4.8	4
0	7868	4.8	4
0	7869	4.8	4
0	7870	4.8	4
0	7871	4.8	4
0	7873	4.8	4
0	7874	4.8	4
0	7875	4.8	4
0	7876	4.8	4
0	7877	4.8	4
0	7928	4.85	4
0	7929	4.85	4
0	7930	4.85	4
0	7931	4.85	4
0	7932	4.85	4
0	7973	4.9	4
0	7974	4.9	4
0	7975	4.9	4
0	7976	4.9	4
0	7977	4.9	4
0	7979	4.9	4
0	7980	4.9	4
0	7981	4.9	4
0	7982	4.9	4
0	7983	4.9	4
0	8034	4.95	4
0	8035	4.95	4
0	8036	4.95	4
0	8037	4.95	4
0	8038	4.95	4
0	8294	5	4
0	8295	5	4
0	8296	5	4
0	8297	5	4
0	8298	5	4
0	8300	5	4
0	8301	5	4
0	8302	5	4
0	8303	5	4
0	8304	5	4
0	8421	5.05	4
0	8422	5.05	4
0	8423	5.05	4
0	8424	5.05	4
0	8425	5.05	4
0	8471	5.1	4
0	8472	5.1	4
0	8473	5.1	4
0	8474	5.1	4
0	8475	5.1	4
0	8477	5.1	4
0	8478	5.1	4
0	8479	5.1	4
0	8480	5.1	4
0	8481	5.1	4
0	8583	5.15	4
0	8584	5.15	4
0	8585	5.15	4
0	8586	5.15	4
0	8587	5.15	4
0	8628	5.2	4
0	8629	5.2	4
0	8630	5.2	4
0	8631	5.2	4
0	8632	5.2	4
0	8634	5.2	4
0	8635	5.2	4
0	8636	5.2	4
0	8637	5.2	4
0	8638	5.2	4
0	8689	5.25	4
0	8690	5.25	4
0	8691	5.25	4
0	8692	5.25	4
0	8693	5.25	4
0	8734	5.3	4
0	8735	5.3	4
0	8736	5.3	4
0	8737	5.3	4
0	8738	5.3	4
0	8740	5.3	4
0	8741	5.3	4
0	8742	5.3	4
0	8743	5.3	4
0	8744	5.3	4
0	8795	5.35	4
0	8796	5.35	4
0	8797	5.35	4
0	8798	5.35	4
0	8799	5.35	4
0	8840	5.4	4
0	8841	5.4	4
0	8842	5.4	4
0	8843	5.4	4
0	8844	5.4	4
0	8846	5.4	4
0	8847	5.4	4
0	8848	5.4	4
0	8849	5.4	4
0	8850	5.4	4
0	8901	5.45	4
0	8902	5.45	4
0	8903	5.45	4
0	8904	5.45	4
0	8905	5.45	4
0	8951	5.5	4
0	8952	5.5	4
0	8953	5.5	4
0	8954	5.5	4
0	8955	5.5	4
0	8957	5.5	4
0	8958	5.5	4
0	8959	5.5	4
0	8960	5.5	4
0	8961	5.5	4
0	9184	5.55	4
0	9185	5.55	4
0	9186	5.55	4
0	9187	5.55	4
0	9188	5.55	4
0	9325	5.6	4
0	9326	5.6	4
0	9327	5.6	4
0	9328	5.6	4
0	9329	5.6	4
0	9331	5.6	4
0	9332	5.6	4
0	9333	5.6	4
0	9334	5.6	4
0	9335	5.6	4
0	9409	5.65	4
0	9410	5.65	4
0	9411	5.65	4
0	9412	5.65	4
0	9413	5.65	4
0	9477	5.7	4
0	9478	5.7	4
0	9479	5.7	4
0	9480	5.7	4
0	9481	5.7	4
0	9483	5.7	4
0	9484	5.7	4
0	9485	5.7	4
0	9486	5.7	4
0	9487	5.7	4
0	9555	5.75	4
0	9556	5.75	4
0	9557	5.75	4
0	9558	5.75	4
0	9559	5.75	4
0	9617	5.8	4
0	9618	5.8	4
0	9619	5.8	4
0	9620	5.8	4
0	9621	5.8	4
0	9623	5.8	4
0	9624	5.8	4
0	9625	5.8	4
0	9626	5.8	4
0	9627	5.8	4
0	9678	5.85	4
0	9679	5.85	4
0	9680	5.85	4
0	9681	5.85	4
0	9682	5.85	4
0	9723	5.9	4
0	9724	5.9	4
0	9725	5.9	4
0	9726	5.9	4
0	9727	5.9	4
0	9729	5.9	4
0	9730	5.9	4
0	9731	5.9	4
0	9732	5.9	4
0	9733	5.9	4
0	9784	5.95	4
0	9785	5.95	4
0	9786	5.95	4
0	9787	5.95	4
0	9788	5.95	4
0	9834	6	4
0	9835	6	4
0	9836	6	4
0	9837	6	4
0	9838	6	4
0	9840	6	4
0	9841	6	4
0	9842	6	4
0	9843	6	4
0	9844	6	4
0	9895	6.05	4
0	9896	6.05	4
0	9897	6.05	4
0	9898	6.05	4
0	9899	6.05	4
0	10116	6.1	4
0	10117	6.1	4
0	10118	6.1	4
0	10119	6.1	4
0	10120	6.1	4
0	10122	6.1	4
0	10123	6.1	4
0	10124	6.1	4
0	10125	6.1	4
0	10126	6.1	4
0	10287	6.15	4
0	10288	6.15	4
0	10289	6.15	4
0	10290	6.15	4
0	10291	6.15	4
0	10355	6.2	4
0	10356	6.2	4
0	10357	6.2	4
0	10358	6.2	4
0	10359	6.2	4
0	10361	6.2	4
0	10362	6.2	4
0	10363	6.2	4
0	10364	6.2	4
0	10365	6.2	4
0	10439	6.25	4
0	10440	6.25	4
0	10441	6.25	4
0	10442	6.25	4
0	10443	6.25	4
0	10507	6.3	4
0	10508	6.3	4
0	10509	6.3	4
0	10510	6.3	4
0	10511	6.3	4
0	10513	6.3	4
0	10514	6.3	4
0	10515	6.3	4
0	10516	6.3	4
0	10517	6.3	4
0	10591	6.35	4
0	10592	6.35	4
0	10593	6.35	4
0	10594	6.35	4
0	10595	6.35	4
0	10636	6.4	4
0	10637	6.4	4
0	10638	6.4	4
0	10639	6.4	4
0	10640	6.4	4
0	10642	6.4	4
0	10643	6.4	4
0	10644	6.4	4
0	10645	6.4	4
0	10646	6.4	4
0	10697	6.45	4
0	10698	6.45	4
0	10699	6.45	4
0	10700	6.45	4
0	10701	6.45	4
0	10747	6.5	4
0	10748	6.5	4
0	10749	6.5	4
0	10750	6.5	4
0	10751	6.5	4
0	10753	6.5	4
0	10754	6.5	4
0	10755	6.5	4
0	10756	6.5	4
0	10757	6.5	4
0	10808	6.55	4
0	10809	6.55	4
0	10810	6.55	4
0	10811	6.55	4
0	10812	6.55	4
0	10853	6.6	4
0	10854	6.6	4
0	10855	6.6	4
0	10856	6.6	4
0	10857	6.6	4
0	10859	6.6	4
0	10860	6.6	4
0	10861	6.6	4
0	10862	6.6	4
0	10863	6.6	4
0	11076	6.65	4
0	11077	6.65	4
0	11078	6.65	4
0	11079	6.65	4
0	11080	6.65	4
0	11381	6.7	4
0	11382	6.7	4
0	11383	6.7	4
0	11384	6.7	4
0	11385	6.7	4
0	11387	6.7	4
0	11388	6.7	4
0	11389	6.7	4
0	11390	6.7	4
0	11391	6.7	4
0	11725	6.75	4
0	11726	6.75	4
0	11727	6.75	4
0	11728	6.75	4
0	11729	6.75	4
0	11961	6.8	4
0	11962	6.8	4
0	11963	6.8	4
0	11964	6.8	4
0	11965	6.8	4
0	11967	6.8	4
0	11968	6.8	4
0	11969	6.8	4
0	11970	6.8	4
0	11971	6.8	4
0	12039	6.85	4
0	12040	6.85	4
0	12041	6.85	4
0	12042	6.85	4
0	12043	6.85	4
0	12084	6.9	4
0	12085	6.9	4
0	12086	6.9	4
0	12087	6.9	4
0	12088	6.9	4
0	12090	6.9	4
0	12091	6.9	4
0	12092	6.9	4
0	12093	6.9	4
0	12094	6.9	4
0	12168	6.95	4
0	12169	6.95	4
0	12170	6.95	4
0	12171	6.95	4
0	12172	6.95	4
0	12218	7	4
0	12219	7	4
0	12220	7	4
0	12221	7	4
0	12222	7	4
0	12224	7	4
0	12225	7	4
0	12226	7	4
0	12227	7	4
0	12228	7	4
0	12279	7.05	4
0	12280	7.05	4
0	12281	7.05	4
0	12282	7.05	4
0	12283	7.05	4
0	12329	7.1	4
0	12330	7.1	4
0	12331	7.1	4
0	12332	7.1	4
0	12333	7.1	4
0	12335	7.1	4
0	12336	7.1	4
0	12337	7.1	4
0	12338	7.1	4
0	12339	7.1	4
0	12419	7.15	4
0	12420	7.15	4
0	12421	7.15	4
0	12422	7.15	4
0	12423	7.15	4
0	12642	7.2	4
0	12643	7.2	4
0	12644	7.2	4
0	12645	7.2	4
0	12646	7.2	4
0	12648	7.2	4
0	12649	7.2	4
0	12650	7.2	4
0	12651	7.2	4
0	12652	7.2	4
0	12844	7.25	4
0	12845	7.25	4
0	12846	7.25	4
0	12847	7.25	4
0	12848	7.25	4
0	12935	7.3	4
0	12936	7.3	4
0	12937	7.3	4
0	12938	7.3	4
0	12939	7.3	4
0	12941	7.3	4
0	12942	7.3	4
0	12943	7.3	4
0	12944	7.3	4
0	12945	7.3	4
0	13019	7.35	4
0	13020	7.35	4
0	13021	7.35	4
0	13022	7.35	4
0	13023	7.35	4
0	13069	7.4	4
0	13070	7.4	4
0	13071	7.4	4
0	13072	7.4	4
0	13073	7.4	4
0	13075	7.4	4
0	13076	7.4	4
0	13077	7.4	4
0	13078	7.4	4
0	13079	7.4	4
0	13130	7.45	4
0	13131	7.45	4
0	13132	7.45	4
0	13133	7.45	4
0	13134	7.45	4
0	13198	7.5	4
0	13199	7.5	4
0	13200	7.5	4
0	13201	7.5	4
0	13202	7.5	4
0	13204	7.5	4
0	13205	7.5	4
0	13206	7.5	4
0	13207	7.5	4
0	13208	7.5	4
0	13259	7.55	4
0	13260	7.55	4
0	13261	7.55	4
0	13262	7.55	4
0	13263	7.55	4
0	13304	7.6	4
0	13305	7.6	4
0	13306	7.6	4
0	13307	7.6	4
0	13308	7.6	4
0	13310	7.6	4
0	13311	7.6	4
0	13312	7.6	4
0	13313	7.6	4
0	13314	7.6	4
0	13365	7.65	4
0	13366	7.65	4
0	13367	7.65	4
0	13368	7.65	4
0	13369	7.65	4
0	13433	7.7	4
0	13434	7.7	4
0	13435	7.7	4
0	13436	7.7	4
0	13437	7.7	4
0	13439	7.7	4
0	13440	7.7	4
0	13441	7.7	4
0	13442	7.7	4
0	13443	7.7	4
0	13644	7.75	4
0	13645	7.75	4
0	13646	7.75	4
0	13647	7.75	4
0	13648	7.75	4
0	13746	7.8	4
0	13747	7.8	4
0	13748	7.8	4
0	13749	7.8	4
0	13750	7.8	4
0	13752	7.8	4
0	13753	7.8	4
0	13754	7.8	4
0	13755	7.8	4
0	13756	7.8	4
0	13853	7.85	4
0	13854	7.85	4
0	13855	7.85	4
0	13856	7.85	4
0	13857	7.85	4
0	13921	7.9	4
0	13922	7.9	4
0	13923	7.9	4
0	13924	7.9	4
0	13925	7.9	4
0	13927	7.9	4
0	13928	7.9	4
0	13929	7.9	4
0	13930	7.9	4
0	13931	7.9	4
0	14005	7.95	4
0	14006	7.95	4
0	14007	7.95	4
0	14008	7.95	4
0	14009	7.95	4
0	14050	8	4
0	14051	8	4
0	14052	8	4
0	14053	8	4
0	14054	8	4
0	14056	8	4
0	14057	8	4
0	14058	8	4
0	14059	8	4
0	14060	8	4
0	14134	8.05	4
0	14135	8.05	4
0	14136	8.05	4
0	14137	8.05	4
0	14138	8.05	4
0	14207	8.1	4
0	14208	8.1	4
0	14209	8.1	4
0	14210	8.1	4
0	14211	8.1	4
0	14213	8.1	4
0	14214	8.1	4
0	14215	8.1	4
0	14216	8.1	4
0	14217	8.1	4
0	14274	8.15	4
0	14275	8.15	4
0	14276	8.15	4
0	14277	8.15	4
0	14278	8.15	4
0	14365	8.2	4
0	14366	8.2	4
0	14367	8.2	4
0	14368	8.2	4
0	14369	8.2	4
0	14371	8.2	4
0	14372	8.2	4
0	14373	8.2	4
0	14374	8.2	4
0	14375	8.2	4
0	14426	8.25	4
0	14427	8.25	4
0	14428	8.25	4
0	14429	8.25	4
0	14430	8.25	4
0	14621	8.3	4
0	14622	8.3	4
0	14623	8.3	4
0	14624	8.3	4
0	14625	8.3	4
0	14627	8.3	4
0	14628	8.3	4
0	14629	8.3	4
0	14630	8.3	4
0	14631	8.3	4
0	14846	8.35	4
0	14847	8.35	4
0	14848	8.35	4
0	14849	8.35	4
0	14850	8.35	4
0	14937	8.4	4
0	14938	8.4	4
0	14939	8.4	4
0	14940	8.4	4
0	14941	8.4	4
0	14943	8.4	4
0	14944	8.4	4
0	14945	8.4	4
0	14946	8.4	4
0	14947	8.4	4
0	15038	8.45	4
0	15039	8.45	4
0	15040	8.45	4
0	15041	8.45	4
0	15042	8.45	4
0	15083	8.5	4
0	15084	8.5	4
0	15085	8.5	4
0	15086	8.5	4
0	15087	8.5	4
0	15089	8.5	4
0	15090	8.5	4
0	15091	8.5	4
0	15092	8.5	4
0	15093	8.5	4
0	15144	8.55	4
0	15145	8.55	4
0	15146	8.55	4
0	15147	8.55	4
0	15148	8.55	4
0	15212	8.6	4
0	15213	8.6	4
0	15214	8.6	4
0	15215	8.6	4
0	15216	8.6	4
0	15218	8.6	4
0	15219	8.6	4
0	15220	8.6	4
0	15221	8.6	4
0	15222	8.6	4
0	15290	8.65	4
0	15291	8.65	4
0	15292	8.65	4
0	15293	8.65	4
0	15294	8.65	4
0	15335	8.7	4
0	15336	8.7	4
0	15337	8.7	4
0	15338	8.7	4
0	15339	8.7	4
0	15341	8.7	4
0	15342	8.7	4
0	15343	8.7	4
0	15344	8.7	4
0	15345	8.7	4
0	15442	8.75	4
0	15443	8.75	4
0	15444	8.75	4
0	15445	8.75	4
0	15446	8.75	4
0	15492	8.8	4
0	15493	8.8	4
0	15494	8.8	4
0	15495	8.8	4
0	15496	8.8	4
0	15498	8.8	4
0	15499	8.8	4
0	15500	8.8	4
0	15501	8.8	4
0	15502	8.8	4
0	15703	8.85	4
0	15704	8.85	4
0	15705	8.85	4
0	15706	8.85	4
0	15707	8.85	4
0	15828	8.9	4
0	15829	8.9	4
0	15830	8.9	4
0	15831	8.9	4
0	15832	8.9	4
0	15834	8.9	4
0	15835	8.9	4
0	15836	8.9	4
0	15837	8.9	4
0	15838	8.9	4
0	15952	8.95	4
0	15953	8.95	4
0	15954	8.95	4
0	15955	8.95	4
0	15956	8.95	4
0	16025	9	4
0	16026	9	4
0	16027	9	4
0	16028	9	4
0	16029	9	4
0	16031	9	4
0	16032	9	4
0	16033	9	4
0	16034	9	4
0	16035	9	4
0	16086	9.05	4
0	16087	9.05	4
0	16088	9.05	4
0	16089	9.05	4
0	16090	9.05	4
0	16136	9.1	4
0	16137	9.1	4
0	16138	9.1	4
0	16139	9.1	4
0	16140	9.1	4
0	16142	9.1	4
0	16143	9.1	4
0	16144	9.1	4
0	16145	9.1	4
0	16146	9.1	4
0	16226	9.15	4
0	16227	9.15	4
0	16228	9.15	4
0	16229	9.15	4
0	16230	9.15	4
0	16271	9.2	4
0	16272	9.2	4
0	16273	9.2	4
0	16274	9.2	4
0	16275	9.2	4
0	16277	9.2	4
0	16278	9.2	4
0	16279	9.2	4
0	16280	9.2	4
0	16281	9.2	4
0	16332	9.25	4
0	16333	9.25	4
0	16334	9.25	4
0	16335	9.25	4
0	16336	9.25	4
0	16423	9.3	4
0	16424	9.3	4
0	16425	9.3	4
0	16426	9.3	4
0	16427	9.3	4
0	16429	9.3	4
0	16430	9.3	4
0	16431	9.3	4
0	16432	9.3	4
0	16433	9.3	4
0	16507	9.35	4
0	16508	9.35	4
0	16509	9.35	4
0	16510	9.35	4
0	16511	9.35	4
0	16702	9.4	4
0	16703	9.4	4
0	16704	9.4	4
0	16705	9.4	4
0	16706	9.4	4
0	16708	9.4	4
0	16709	9.4	4
0	16710	9.4	4
0	16711	9.4	4
0	16712	9.4	4
0	16927	9.45	4
0	16928	9.45	4
0	16929	9.45	4
0	16930	9.45	4
0	16931	9.45	4
0	17035	9.5	4
0	17036	9.5	4
0	17037	9.5	4
0	17038	9.5	4
0	17039	9.5	4
0	17041	9.5	4
0	17042	9.5	4
0	17043	9.5	4
0	17044	9.5	4
0	17045	9.5	4
0	17119	9.55	4
0	17120	9.55	4
0	17121	9.55	4
0	17122	9.55	4
0	17123	9.55	4
0	17164	9.6	4
0	17165	9.6	4
0	17166	9.6	4
0	17167	9.6	4
0	17168	9.6	4
0	17170	9.6	4
0	17171	9.6	4
0	17172	9.6	4
0	17173	9.6	4
0	17174	9.6	4
0	17225	9.65	4
0	17226	9.65	4
0	17227	9.65	4
0	17228	9.65	4
0	17229	9.65	4
0	17293	9.7	4
0	17294	9.7	4
0	17295	9.7	4
0	17296	9.7	4
0	17297	9.7	4
0	17299	9.7	4
0	17300	9.7	4
0	17301	9.7	4
0	17302	9.7	4
0	17303	9.7	4
0	17354	9.75	4
0	17355	9.75	4
0	17356	9.75	4
0	17357	9.75	4
0	17358	9.75	4
0	17399	9.8	4
0	17400	9.8	4
0	17401	9.8	4
0	17402	9.8	4
0	17403	9.8	4
0	17405	9.8	4
0	17406	9.8	4
0	17407	9.8	4
0	17408	9.8	4
0	17409	9.8	4
0	17500	9.85	4
0	17501	9.85	4
0	17502	9.85	4
0	17503	9.85	4
0	17504	9.85	4
0	17550	9.9	4
0	17551	9.9	4
0	17552	9.9	4
0	17553	9.9	4
0	17554	9.9	4
0	17556	9.9	4
0	17557	9.9	4
0	17558	9.9	4
0	17559	9.9	4
0	17560	9.9	4
0	17743	9.95	4
0	17744	9.95	4
0	17745	9.95	4
0	17746	9.95	4
0	17747	9.95	4
0	17868	10	4
0	17869	10	4
0	17870	10	4
0	17871	10	4
0	17872	10	4
0	17874	10	4
0	17875	10	4
0	17876	10	4
0	17877	10	4
0	17878	10	4
0	17975	10.05	4
0	17976	10.05	4
0	17977	10.05	4
0	17978	10.05	4
0	17979	10.05	4
0	18025	10.1	4
0	18026	10.1	4
0	18027	10.1	4
0	18028	10.1	4
0	18029	10.1	4
0	18031	10.1	4
0	18032	10.1	4
0	18033	10.1	4
0	18034	10.1	4
0	18035	10.1	4
0	18092	10.15	4
0	18093	10.15	4
0	18094	10.15	4
0	18095	10.15	4
0	18096	10.15	4
0	18137	10.2	4
0	18138	10.2	4
0	18139	10.2	4
0	18140	10.2	4
0	18141	10.2	4
0	18143	10.2	4
0	18144	10.2	4
0	18145	10.2	4
0	18146	10.2	4
0	18147	10.2	4
0	18238	10.25	4
0	18239	10.25	4
0	18240	10.25	4
0	18241	10.25	4
0	18242	10.25	4
0	18283	10.3	4
0	18284	10.3	4
0	18285	10.3	4
0	18286	10.3	4
0	18287	10.3	4
0	18289	10.3	4
0	18290	10.3	4
0	18291	10.3	4
0	18292	10.3	4
0	18293	10.3	4
0	18344	10.35	4
0	18345	10.35	4
0	18346	10.35	4
0	18347	10.35	4
0	18348	10.35	4
0	18458	10.4	4
0	18459	10.4	4
0	18460	10.4	4
0	18461	10.4	4
0	18462	10.4	4
0	18464	10.4	4
0	18465	10.4	4
0	18466	10.4	4
0	18467	10.4	4
0	18468	10.4	4
0	18519	10.45	4
0	18520	10.45	4
0	18521	10.45	4
0	18522	10.45	4
0	18523	10.45	4
0	18691	10.5	4
0	18692	10.5	4
0	18693	10.5	4
0	18694	10.5	4
0	18695	10.5	4
0	18697	10.5	4
0	18698	10.5	4
0	18699	10.5	4
0	18700	10.5	4
0	18701	10.5	4
0	18916	10.55	4
0	18917	10.55	4
0	18918	10.55	4
0	18919	10.55	4
0	18920	10.55	4
0	19007	10.6	4
0	19008	10.6	4
0	19009	10.6	4
0	19010	10.6	4
0	19011	10.6	4
0	19013	10.6	4
0	19014	10.6	4
0	19015	10.6	4
0	19016	10.6	4
0	19017	10.6	4
0	19068	10.65	4
0	19069	10.65	4
0	19070	10.65	4
0	19071	10.65	4
0	19072	10.65	4
0	19113	10.7	4
0	19114	10.7	4
0	19115	10.7	4
0	19116	10.7	4
0	19117	10.7	4
0	19119	10.7	4
0	19120	10.7	4
0	19121	10.7	4
0	19122	10.7	4
0	19123	10.7	4
0	19174	10.75	4
0	19175	10.75	4
0	19176	10.75	4
0	19177	10.75	4
0	19178	10.75	4
0	19247	10.8	4
0	19248	10.8	4
0	19249	10.8	4
0	19250	10.8	4
0	19251	10.8	4
0	19253	10.8	4
0	19254	10.8	4
0	19255	10.8	4
0	19256	10.8	4
0	19257	10.8	4
0	19308	10.85	4
0	19309	10.85	4
0	19310	10.85	4
0	19311	10.85	4
0	19312	10.85	4
0	19353	10.9	4
0	19354	10.9	4
0	19355	10.9	4
0	19356	10.9	4
0	19357	10.9	4
0	19359	10.9	4
0	19360	10.9	4
0	19361	10.9	4
0	19362	10.9	4
0	19363	10.9	4
0	19460	10.95	4
0	19461	10.95	4
0	19462	10.95	4
0	19463	10.95	4
0	19464	10.95	4
0	19505	11	4
0	19506	11	4
0	19507	11	4
0	19508	11	4
0	19509	11	4
0	19511	11	4
0	19512	11	4
0	19513	11	4
0	19514	11	4
0	19515	11	4
0	19693	11.05	4
0	19694	11.05	4
0	19695	11.05	4
0	19696	11.05	4
0	19697	11.05	4
0	19846	11.1	4
0	19847	11.1	4
0	19848	11.1	4
0	19849	11.1	4
0	19850	11.1	4
0	19852	11.1	4
0	19853	11.1	4
0	19854	11.1	4
0	19855	11.1	4
0	19856	11.1	4
0	19982	11.15	4
0	19983	11.15	4
0	19984	11.15	4
0	19985	11.15	4
0	19986	11.15	4
0	20027	11.2	4
0	20028	11.2	4
0	20029	11.2	4
0	20030	11.2	4
0	20031	11.2	4
0	20033	11.2	4
0	20034	11.2	4
0	20035	11.2	4
0	20036	11.2	4
0	20037	11.2	4
0	20093	11.25	4
0	20094	11.25	4
0	20095	11.25	4
0	20096	11.25	4
0	20097	11.25	4
0	20161	11.3	4
0	20162	11.3	4
0	20163	11.3	4
0	20164	11.3	4
0	20165	11.3	4
0	20167	11.3	4
0	20168	11.3	4
0	20169	11.3	4
0	20170	11.3	4
0	20171	11.3	4
0	20245	11.35	4
0	20246	11.35	4
0	20247	11.35	4
0	20248	11.35	4
0	20249	11.35	4
0	20290	11.4	4
0	20291	11.4	4
0	20292	11.4	4
0	20293	11.4	4
0	20294	11.4	4
0	20296	11.4	4
0	20297	11.4	4
0	20298	11.4	4
0	20299	11.4	4
0	20300	11.4	4
0	20351	11.45	4
0	20352	11.45	4
0	20353	11.45	4
0	20354	11.45	4
0	20355	11.45	4
0	20442	11.5	4
0	20443	11.5	4
0	20444	11.5	4
0	20445	11.5	4
0	20446	11.5	4
0	20448	11.5	4
0	20449	11.5	4
0	20450	11.5	4
0	20451	11.5	4
0	20452	11.5	4
0	20503	11.55	4
0	20504	11.55	4
0	20505	11.55	4
0	20506	11.55	4
0	20507	11.55	4
0	20675	11.6	4
0	20676	11.6	4
0	20677	11.6	4
0	20678	11.6	4
0	20679	11.6	4
0	20681	11.6	4
0	20682	11.6	4
0	20683	11.6	4
0	20684	11.6	4
0	20685	11.6	4
0	20900	11.65	4
0	20901	11.65	4
0	20902	11.65	4
0	20903	11.65	4
0	20904	11.65	4
0	21014	11.7	4
0	21015	11.7	4
0	21016	11.7	4
0	21017	11.7	4
0	21018	11.7	4
0	21020	11.7	4
0	21021	11.7	4
0	21022	11.7	4
0	21023	11.7	4
0	21024	11.7	4
0	21075	11.75	4
0	21076	11.75	4
0	21077	11.75	4
0	21078	11.75	4
0	21079	11.75	4
0	21120	11.8	4
0	21121	11.8	4
0	21122	11.8	4
0	21123	11.8	4
0	21124	11.8	4
0	21126	11.8	4
0	21127	11.8	4
0	21128	11.8	4
0	21129	11.8	4
0	21130	11.8	4
0	21186	11.85	4
0	21187	11.85	4
0	21188	11.85	4
0	21189	11.85	4
0	21190	11.85	4
0	21254	11.9	4
0	21255	11.9	4
0	21256	11.9	4
0	21257	11.9	4
0	21258	11.9	4
0	21260	11.9	4
0	21261	11.9	4
0	21262	11.9	4
0	21263	11.9	4
0	21264	11.9	4
0	21315	11.95	4
0	21316	11.95	4
0	21317	11.95	4
0	21318	11.95	4
0	21319	11.95	4
0	21388	12	4
0	21389	12	4
0	21390	12	4
0	21391	12	4
0	21392	12	4
0	21394	12	4
0	21395	12	4
0	21396	12	4
0	21397	12	4
0	21398	12	4
0	21495	12.05	4
0	21496	12.05	4
0	21497	12.05	4
0	21498	12.05	4
0	21499	12.05	4
0	21545	12.1	4
0	21546	12.1	4
0	21547	12.1	4
0	21548	12.1	4
0	21549	12.1	4
0	21551	12.1	4
0	21552	12.1	4
0	21553	12.1	4
0	21554	12.1	4
0	21555	12.1	4
0	21756	12.15	4
0	21757	12.15	4
0	21758	12.15	4
0	21759	12.15	4
0	21760	12.15	4
0	21965	12.2	4
0	21966	12.2	4
0	21967	12.2	4
0	21968	12.2	4
0	21969	12.2	4
0	21971	12.2	4
0	21972	12.2	4
0	21973	12.2	4
0	21974	12.2	4
0	21975	12.2	4
0	22072	12.25	4
0	22073	12.25	4
0	22074	12.25	4
0	22075	12.25	4
0	22076	12.25	4
0	22117	12.3	4
0	22118	12.3	4
0	22119	12.3	4
0	22120	12.3	4
0	22121	12.3	4
0	22123	12.3	4
0	22124	12.3	4
0	22125	12.3	4
0	22126	12.3	4
0	22127	12.3	4
0	22178	12.35	4
0	22179	12.35	4
0	22180	12.35	4
0	22181	12.35	4
0	22182	12.35	4
0	22223	12.4	4
0	22224	12.4	4
0	22225	12.4	4
0	22226	12.4	4
0	22227	12.4	4
0	22229	12.4	4
0	22230	12.4	4
0	22231	12.4	4
0	22232	12.4	4
0	22233	12.4	4
0	22307	12.45	4
0	22308	12.45	4
0	22309	12.45	4
0	22310	12.45	4
0	22311	12.45	4
0	22352	12.5	4
0	22353	12.5	4
0	22354	12.5	4
0	22355	12.5	4
0	22356	12.5	4
0	22358	12.5	4
0	22359	12.5	4
0	22360	12.5	4
0	22361	12.5	4
0	22362	12.5	4
0	22436	12.55	4
0	22437	12.55	4
0	22438	12.55	4
0	22439	12.55	4
0	22440	12.55	4
0	22527	12.6	4
0	22528	12.6	4
0	22529	12.6	4
0	22530	12.6	4
0	22531	12.6	4
0	22533	12.6	4
0	22534	12.6	4
0	22535	12.6	4
0	22536	12.6	4
0	22537	12.6	4
0	22588	12.65	4
0	22589	12.65	4
0	22590	12.65	4
0	22591	12.65	4
0	22592	12.65	4
0	22782	12.7	4
0	22783	12.7	4
0	22784	12.7	4
0	22785	12.7	4
0	22786	12.7	4
0	22788	12.7	4
0	22789	12.7	4
0	22790	12.7	4
0	22791	12.7	4
0	22792	12.7	4
0	22923	12.75	4
0	22924	12.75	4
0	22925	12.75	4
0	22926	12.75	4
0	22927	12.75	4
0	23014	12.8	4
0	23015	12.8	4
0	23016	12.8	4
0	23017	12.8	4
0	23018	12.8	4
0	23020	12.8	4
0	23021	12.8	4
0	23022	12.8	4
0	23023	12.8	4
0	23024	12.8	4
0	23080	12.85	4
0	23081	12.85	4
0	23082	12.85	4
0	23083	12.85	4
0	23084	12.85	4
0	23125	12.9	4
0	23126	12.9	4
0	23127	12.9	4
0	23128	12.9	4
0	23129	12.9	4
0	23131	12.9	4
0	23132	12.9	4
0	23133	12.9	4
0	23134	12.9	4
0	23135	12.9	4
0	23186	12.95	4
0	23187	12.95	4
0	23188	12.95	4
0	23189	12.95	4
0	23190	12.95	4
0	23254	13	4
0	23255	13	4
0	23256	13	4
0	23257	13	4
0	23258	13	4
0	23260	13	4
0	23261	13	4
0	23262	13	4
0	23263	13	4
0	23264	13	4
0	23315	13.05	4
0	23316	13.05	4
0	23317	13.05	4
0	23318	13.05	4
0	23319	13.05	4
0	23365	13.1	4
0	23366	13.1	4
0	23367	13.1	4
0	23368	13.1	4
0	23369	13.1	4
0	23371	13.1	4
0	23372	13.1	4
0	23373	13.1	4
0	23374	13.1	4
0	23375	13.1	4
0	23478	13.15	4
0	23479	13.15	4
0	23480	13.15	4
0	23481	13.15	4
0	23482	13.15	4
0	23523	13.2	4
0	23524	13.2	4
0	23525	13.2	4
0	23526	13.2	4
0	23527	13.2	4
0	23529	13.2	4
0	23530	13.2	4
0	23531	13.2	4
0	23532	13.2	4
0	23533	13.2	4
0	23711	13.25	4
0	23712	13.25	4
0	23713	13.25	4
0	23714	13.25	4
0	23715	13.25	4
0	23943	13.3	4
0	23944	13.3	4
0	23945	13.3	4
0	23946	13.3	4
0	23947	13.3	4
0	23949	13.3	4
0	23950	13.3	4
0	23951	13.3	4
0	23952	13.3	4
0	23953	13.3	4
0	24044	13.35	4
0	24045	13.35	4
0	24046	13.35	4
0	24047	13.35	4
0	24048	13.35	4
0	24089	13.4	4
0	24090	13.4	4
0	24091	13.4	4
0	24092	13.4	4
0	24093	13.4	4
0	24095	13.4	4
0	24096	13.4	4
0	24097	13.4	4
0	24098	13.4	4
0	24099	13.4	4
0	24173	13.45	4
0	24174	13.45	4
0	24175	13.45	4
0	24176	13.45	4
0	24177	13.45	4
0	24218	13.5	4
0	24219	13.5	4
0	24220	13.5	4
0	24221	13.5	4
0	24222	13.5	4
0	24224	13.5	4
0	24225	13.5	4
0	24226	13.5	4
0	24227	13.5	4
0	24228	13.5	4
0	24302	13.55	4
0	24303	13.55	4
0	24304	13.55	4
0	24305	13.55	4
0	24306	13.55	4
0	24347	13.6	4
0	24348	13.6	4
0	24349	13.6	4
0	24350	13.6	4
0	24351	13.6	4
0	24353	13.6	4
0	24354	13.6	4
0	24355	13.6	4
0	24356	13.6	4
0	24357	13.6	4
0	24408	13.65	4
0	24409	13.65	4
0	24410	13.65	4
0	24411	13.65	4
0	24412	13.65	4
0	24493	13.7	4
0	24494	13.7	4
0	24495	13.7	4
0	24496	13.7	4
0	24497	13.7	4
0	24499	13.7	4
0	24500	13.7	4
0	24501	13.7	4
0	24502	13.7	4
0	24503	13.7	4
0	24554	13.75	4
0	24555	13.75	4
0	24556	13.75	4
0	24557	13.75	4
0	24558	13.75	4
0	24726	13.8	4
0	24727	13.8	4
0	24728	13.8	4
0	24729	13.8	4
0	24730	13.8	4
0	24732	13.8	4
0	24733	13.8	4
0	24734	13.8	4
0	24735	13.8	4
0	24736	13.8	4
0	24890	13.85	4
0	24891	13.85	4
0	24892	13.85	4
0	24893	13.85	4
0	24894	13.85	4
0	24981	13.9	4
0	24982	13.9	4
0	24983	13.9	4
0	24984	13.9	4
0	24985	13.9	4
0	24987	13.9	4
0	24988	13.9	4
0	24989	13.9	4
0	24990	13.9	4
0	24991	13.9	4
0	25042	13.95	4
0	25043	13.95	4
0	25044	13.95	4
0	25045	13.95	4
0	25046	13.95	4
0	25110	14	4
0	25111	14	4
0	25112	14	4
0	25113	14	4
0	25114	14	4
0	25116	14	4
0	25117	14	4
0	25118	14	4
0	25119	14	4
0	25120	14	4
0	25171	14.05	4
0	25172	14.05	4
0	25173	14.05	4
0	25174	14.05	4
0	25175	14.05	4
0	25244	14.1	4
0	25245	14.1	4
0	25246	14.1	4
0	25247	14.1	4
0	25248	14.1	4
0	25250	14.1	4
0	25251	14.1	4
0	25252	14.1	4
0	25253	14.1	4
0	25254	14.1	4
0	25334	14.15	4
0	25335	14.15	4
0	25336	14.15	4
0	25337	14.15	4
0	25338	14.15	4
0	25379	14.2	4
0	25380	14.2	4
0	25381	14.2	4
0	25382	14.2	4
0	25383	14.2	4
0	25385	14.2	4
0	25386	14.2	4
0	25387	14.2	4
0	25388	14.2	4
0	25389	14.2	4
0	25486	14.25	4
0	25487	14.25	4
0	25488	14.25	4
0	25489	14.25	4
0	25490	14.25	4
0	25577	14.3	4
0	25578	14.3	4
0	25579	14.3	4
0	25580	14.3	4
0	25581	14.3	4
0	25583	14.3	4
0	25584	14.3	4
0	25585	14.3	4
0	25586	14.3	4
0	25587	14.3	4
0	25765	14.35	4
0	25766	14.35	4
0	25767	14.35	4
0	25768	14.35	4
0	25769	14.35	4
0	25997	14.4	4
0	25998	14.4	4
0	25999	14.4	4
0	26000	14.4	4
0	26001	14.4	4
0	26003	14.4	4
0	26004	14.4	4
0	26005	14.4	4
0	26006	14.4	4
0	26007	14.4	4
0	26121	14.45	4
0	26122	14.45	4
0	26123	14.45	4
0	26124	14.45	4
0	26125	14.45	4
0	26166	14.5	4
0	26167	14.5	4
0	26168	14.5	4
0	26169	14.5	4
0	26170	14.5	4
0	26172	14.5	4
0	26173	14.5	4
0	26174	14.5	4
0	26175	14.5	4
0	26176	14.5	4
0	26250	14.55	4
0	26251	14.55	4
0	26252	14.55	4
0	26253	14.55	4
0	26254	14.55	4
0	26295	14.6	4
0	26296	14.6	4
0	26297	14.6	4
0	26298	14.6	4
0	26299	14.6	4
0	26301	14.6	4
0	26302	14.6	4
0	26303	14.6	4
0	26304	14.6	4
0	26305	14.6	4
0	26379	14.65	4
0	26380	14.65	4
0	26381	14.65	4
0	26382	14.65	4
0	26383	14.65	4
0	26429	14.7	4
0	26430	14.7	4
0	26431	14.7	4
0	26432	14.7	4
0	26433	14.7	4
0	26435	14.7	4
0	26436	14.7	4
0	26437	14.7	4
0	26438	14.7	4
0	26439	14.7	4
0	26490	14.75	4
0	26491	14.75	4
0	26492	14.75	4
0	26493	14.75	4
0	26494	14.75	4
0	26581	14.8	4
0	26582	14.8	4
0	26583	14.8	4
0	26584	14.8	4
0	26585	14.8	4
0	26587	14.8	4
0	26588	14.8	4
0	26589	14.8	4
0	26590	14.8	4
0	26591	14.8	4
0	26665	14.85	4
0	26666	14.85	4
0	26667	14.85	4
0	26668	14.85	4
0	26669	14.85	4
0	26837	14.9	4
0	26838	14.9	4
0	26839	14.9	4
0	26840	14.9	4
0	26841	14.9	4
0	26843	14.9	4
0	26844	14.9	4
0	26845	14.9	4
0	26846	14.9	4
0	26847	14.9	4
0	26983	14.95	4
0	26984	14.95	4
0	26985	14.95	4
0	26986	14.95	4
0	26987	14.95	4
0	27079	15	4
0	27080	15	4
0	27081	15	4
0	27082	15	4
0	27083	15	4
0	27085	15	4
0	27086	15	4
0	27087	15	4
0	27088	15	4
0	27089	15	4
0	27140	15.05	4
0	27141	15.05	4
0	27142	15.05	4
0	27143	15.05	4
0	27144	15.05	4
0	27213	15.1	4
0	27214	15.1	4
0	27215	15.1	4
0	27216	15.1	4
0	27217	15.1	4
0	27219	15.1	4
0	27220	15.1	4
0	27221	15.1	4
0	27222	15.1	4
0	27223	15.1	4
0	27280	15.15	4
0	27281	15.15	4
0	27282	15.15	4
0	27283	15.15	4
0	27284	15.15	4
0	27325	15.2	4
0	27326	15.2	4
0	27327	15.2	4
0	27328	15.2	4
0	27329	15.2	4
0	27331	15.2	4
0	27332	15.2	4
0	27333	15.2	4
0	27334	15.2	4
0	27335	15.2	4
0	27386	15.25	4
0	27387	15.25	4
0	27388	15.25	4
0	27389	15.25	4
0	27390	15.25	4
0	27431	15.3	4
0	27432	15.3	4
0	27433	15.3	4
0	27434	15.3	4
0	27435	15.3	4
0	27437	15.3	4
0	27438	15.3	4
0	27439	15.3	4
0	27440	15.3	4
0	27441	15.3	4
0	27515	15.35	4
0	27516	15.35	4
0	27517	15.35	4
0	27518	15.35	4
0	27519	15.35	4
0	27583	15.4	4
0	27584	15.4	4
0	27585	15.4	4
0	27586	15.4	4
0	27587	15.4	4
0	27589	15.4	4
0	27590	15.4	4
0	27591	15.4	4
0	27592	15.4	4
0	27593	15.4	4
0	27771	15.45	4
0	27772	15.45	4
0	27773	15.45	4
0	27774	15.45	4
0	27775	15.45	4
0	27980	15.5	4
0	27981	15.5	4
0	27982	15.5	4
0	27983	15.5	4
0	27984	15.5	4
0	27986	15.5	4
0	27987	15.5	4
0	27988	15.5	4
0	27989	15.5	4
0	27990	15.5	4
0	28087	15.55	4
0	28088	15.55	4
0	28089	15.55	4
0	28090	15.55	4
0	28091	15.55	4
0	28132	15.6	4
0	28133	15.6	4
0	28134	15.6	4
0	28135	15.6	4
0	28136	15.6	4
0	28138	15.6	4
0	28139	15.6	4
0	28140	15.6	4
0	28141	15.6	4
0	28142	15.6	4
0	28216	15.65	4
0	28217	15.65	4
0	28218	15.65	4
0	28219	15.65	4
0	28220	15.65	4
0	28261	15.7	4
0	28262	15.7	4
0	28263	15.7	4
0	28264	15.7	4
0	28265	15.7	4
0	28267	15.7	4
0	28268	15.7	4
0	28269	15.7	4
0	28270	15.7	4
0	28271	15.7	4
0	28322	15.75	4
0	28323	15.75	4
0	28324	15.75	4
0	28325	15.75	4
0	28326	15.75	4
0	28367	15.8	4
0	28368	15.8	4
0	28369	15.8	4
0	28370	15.8	4
0	28371	15.8	4
0	28373	15.8	4
0	28374	15.8	4
0	28375	15.8	4
0	28376	15.8	4
0	28377	15.8	4
0	28428	15.85	4
0	28429	15.85	4
0	28430	15.85	4
0	28431	15.85	4
0	28432	15.85	4
0	28501	15.9	4
0	28502	15.9	4
0	28503	15.9	4
0	28504	15.9	4
0	28505	15.9	4
0	28507	15.9	4
0	28508	15.9	4
0	28509	15.9	4
0	28510	15.9	4
0	28511	15.9	4
0	28585	15.95	4
0	28586	15.95	4
0	28587	15.95	4
0	28588	15.95	4
0	28589	15.95	4
0	28757	16	4
0	28758	16	4
0	28759	16	4
0	28760	16	4
0	28761	16	4
0	28763	16	4
0	28764	16	4
0	28765	16	4
0	28766	16	4
0	28767	16	4
0	28898	16.05	4
0	28899	16.05	4
0	28900	16.05	4
0	28901	16.05	4
0	28902	16.05	4
0	28976	16.1	4
0	28977	16.1	4
0	28978	16.1	4
0	28979	16.1	4
0	28980	16.1	4
0	28982	16.1	4
0	28983	16.1	4
0	28984	16.1	4
0	28985	16.1	4
0	28986	16.1	4
0	29043	16.15	4
0	29044	16.15	4
0	29045	16.15	4
0	29046	16.15	4
0	29047	16.15	4
0	29111	16.2	4
0	29112	16.2	4
0	29113	16.2	4
0	29114	16.2	4
0	29115	16.2	4
0	29117	16.2	4
0	29118	16.2	4
0	29119	16.2	4
0	29120	16.2	4
0	29121	16.2	4
0	29195	16.25	4
0	29196	16.25	4
0	29197	16.25	4
0	29198	16.25	4
0	29199	16.25	4
0	29263	16.3	4
0	29264	16.3	4
0	29265	16.3	4
0	29266	16.3	4
0	29267	16.3	4
0	29269	16.3	4
0	29270	16.3	4
0	29271	16.3	4
0	29272	16.3	4
0	29273	16.3	4
0	29347	16.35	4
0	29348	16.35	4
0	29349	16.35	4
0	29350	16.35	4
0	29351	16.35	4
0	29415	16.4	4
0	29416	16.4	4
0	29417	16.4	4
0	29418	16.4	4
0	29419	16.4	4
0	29421	16.4	4
0	29422	16.4	4
0	29423	16.4	4
0	29424	16.4	4
0	29425	16.4	4
0	29522	16.45	4
0	29523	16.45	4
0	29524	16.45	4
0	29525	16.45	4
0	29526	16.45	4
0	29590	16.5	4
0	29591	16.5	4
0	29592	16.5	4
0	29593	16.5	4
0	29594	16.5	4
0	29596	16.5	4
0	29597	16.5	4
0	29598	16.5	4
0	29599	16.5	4
0	29600	16.5	4
0	29778	16.55	4
0	29779	16.55	4
0	29780	16.55	4
0	29781	16.55	4
0	29782	16.55	4
0	29969	16.6	4
0	29970	16.6	4
0	29971	16.6	4
0	29972	16.6	4
0	29973	16.6	4
0	29975	16.6	4
0	29976	16.6	4
0	29977	16.6	4
0	29978	16.6	4
0	29979	16.6	4
0	30053	16.65	4
0	30054	16.65	4
0	30055	16.65	4
0	30056	16.65	4
0	30057	16.65	4
0	30098	16.7	4
0	30099	16.7	4
0	30100	16.7	4
0	30101	16.7	4
0	30102	16.7	4
0	30104	16.7	4
0	30105	16.7	4
0	30106	16.7	4
0	30107	16.7	4
0	30108	16.7	4
0	30159	16.75	4
0	30160	16.75	4
0	30161	16.75	4
0	30162	16.75	4
0	30163	16.75	4
0	30227	16.8	4
0	30228	16.8	4
0	30229	16.8	4
0	30230	16.8	4
0	30231	16.8	4
0	30233	16.8	4
0	30234	16.8	4
0	30235	16.8	4
0	30236	16.8	4
0	30237	16.8	4
0	30305	16.85	4
0	30306	16.85	4
0	30307	16.85	4
0	30308	16.85	4
0	30309	16.85	4
0	30373	16.9	4
0	30374	16.9	4
0	30375	16.9	4
0	30376	16.9	4
0	30377	16.9	4
0	30379	16.9	4
0	30380	16.9	4
0	30381	16.9	4
0	30382	16.9	4
0	30383	16.9	4
0	30457	16.95	4
0	30458	16.95	4
0	30459	16.95	4
0	30460	16.95	4
0	30461	16.95	4
0	30535	17	4
0	30536	17	4
0	30537	17	4
0	30538	17	4
0	30539	17	4
0	30541	17	4
0	30542	17	4
0	30543	17	4
0	30544	17	4
0	30545	17	4
0	30619	17.05	4
0	30620	17.05	4
0	30621	17.05	4
0	30622	17.05	4
0	30623	17.05	4
0	30796	17.1	4
0	30797	17.1	4
0	30798	17.1	4
0	30799	17.1	4
0	30800	17.1	4
0	30802	17.1	4
0	30803	17.1	4
0	30804	17.1	4
0	30805	17.1	4
0	30806	17.1	4
0	31004	17.15	4
0	31005	17.15	4
0	31006	17.15	4
0	31007	17.15	4
0	31008	17.15	4
0	31072	17.2	4
0	31073	17.2	4
0	31074	17.2	4
0	31075	17.2	4
0	31076	17.2	4
0	31078	17.2	4
0	31079	17.2	4
0	31080	17.2	4
0	31081	17.2	4
0	31082	17.2	4
0	31133	17.25	4
0	31134	17.25	4
0	31135	17.25	4
0	31136	17.25	4
0	31137	17.25	4
0	31178	17.3	4
0	31179	17.3	4
0	31180	17.3	4
0	31181	17.3	4
0	31182	17.3	4
0	31184	17.3	4
0	31185	17.3	4
0	31186	17.3	4
0	31187	17.3	4
0	31188	17.3	4
0	31262	17.35	4
0	31263	17.35	4
0	31264	17.35	4
0	31265	17.35	4
0	31266	17.35	4
0	31307	17.4	4
0	31308	17.4	4
0	31309	17.4	4
0	31310	17.4	4
0	31311	17.4	4
0	31313	17.4	4
0	31314	17.4	4
0	31315	17.4	4
0	31316	17.4	4
0	31317	17.4	4
0	31391	17.45	4
0	31392	17.45	4
0	31393	17.45	4
0	31394	17.45	4
0	31395	17.45	4
0	31459	17.5	4
0	31460	17.5	4
0	31461	17.5	4
0	31462	17.5	4
0	31463	17.5	4
0	31465	17.5	4
0	31466	17.5	4
0	31467	17.5	4
0	31468	17.5	4
0	31469	17.5	4
0	31560	17.55	4
0	31561	17.55	4
0	31562	17.55	4
0	31563	17.55	4
0	31564	17.55	4
0	31628	17.6	4
0	31629	17.6	4
0	31630	17.6	4
0	31631	17.6	4
0	31632	17.6	4
0	31634	17.6	4
0	31635	17.6	4
0	31636	17.6	4
0	31637	17.6	4
0	31638	17.6	4
0	31816	17.65	4
0	31817	17.65	4
0	31818	17.65	4
0	31819	17.65	4
0	31820	17.65	4
0	31923	17.7	4
0	31924	17.7	4
0	31925	17.7	4
0	31926	17.7	4
0	31927	17.7	4
0	31929	17.7	4
0	31930	17.7	4
0	31931	17.7	4
0	31932	17.7	4
0	31933	17.7	4
0	32007	17.75	4
0	32008	17.75	4
0	32009	17.75	4
0	32010	17.75	4
0	32011	17.75	4
0	32069	17.8	4
0	32070	17.8	4
0	32071	17.8	4
0	32072	17.8	4
0	32073	17.8	4
0	32075	17.8	4
0	32076	17.8	4
0	32077	17.8	4
0	32078	17.8	4
0	32079	17.8	4
0	32130	17.85	4
0	32131	17.85	4
0	32132	17.85	4
0	32133	17.85	4
0	32134	17.85	4
0	32198	17.9	4
0	32199	17.9	4
0	32200	17.9	4
0	32201	17.9	4
0	32202	17.9	4
0	32204	17.9	4
0	32205	17.9	4
0	32206	17.9	4
0	32207	17.9	4
0	32208	17.9	4
0	32282	17.95	4
0	32283	17.95	4
0	32284	17.95	4
0	32285	17.95	4
0	32286	17.95	4
0	32350	18	4
0	32351	18	4
0	32352	18	4
0	32353	18	4
0	32354	18	4
0	32356	18	4
0	32357	18	4
0	32358	18	4
0	32359	18	4
0	32360	18	4
0	32434	18.05	4
0	32435	18.05	4
0	32436	18.05	4
0	32437	18.05	4
0	32438	18.05	4
0	32507	18.1	4
0	32508	18.1	4
0	32509	18.1	4
0	32510	18.1	4
0	32511	18.1	4
0	32513	18.1	4
0	32514	18.1	4
0	32515	18.1	4
0	32516	18.1	4
0	32517	18.1	4
0	32597	18.15	4
0	32598	18.15	4
0	32599	18.15	4
0	32600	18.15	4
0	32601	18.15	4
0	32769	18.2	4
0	32770	18.2	4
0	32771	18.2	4
0	32772	18.2	4
0	32773	18.2	4
0	32775	18.2	4
0	32776	18.2	4
0	32777	18.2	4
0	32778	18.2	4
0	32779	18.2	4
0	32971	18.25	4
0	32972	18.25	4
0	32973	18.25	4
0	32974	18.25	4
0	32975	18.25	4
0	33039	18.3	4
0	33040	18.3	4
0	33041	18.3	4
0	33042	18.3	4
0	33043	18.3	4
0	33045	18.3	4
0	33046	18.3	4
0	33047	18.3	4
0	33048	18.3	4
0	33049	18.3	4
0	33123	18.35	4
0	33124	18.35	4
0	33125	18.35	4
0	33126	18.35	4
0	33127	18.35	4
0	33168	18.4	4
0	33169	18.4	4
0	33170	18.4	4
0	33171	18.4	4
0	33172	18.4	4
0	33174	18.4	4
0	33175	18.4	4
0	33176	18.4	4
0	33177	18.4	4
0	33178	18.4	4
0	33275	18.45	4
0	33276	18.45	4
0	33277	18.45	4
0	33278	18.45	4
0	33279	18.45	4
0	33343	18.5	4
0	33344	18.5	4
0	33345	18.5	4
0	33346	18.5	4
0	33347	18.5	4
0	33349	18.5	4
0	33350	18.5	4
0	33351	18.5	4
0	33352	18.5	4
0	33353	18.5	4
0	33427	18.55	4
0	33428	18.55	4
0	33429	18.55	4
0	33430	18.55	4
0	33431	18.55	4
0	33500	18.6	4
0	33501	18.6	4
0	33502	18.6	4
0	33503	18.6	4
0	33504	18.6	4
0	33506	18.6	4
0	33507	18.6	4
0	33508	18.6	4
0	33509	18.6	4
0	33510	18.6	4
0	33566	18.65	4
0	33567	18.65	4
0	33568	18.65	4
0	33569	18.65	4
0	33570	18.65	4
0	33634	18.7	4
0	33635	18.7	4
0	33636	18.7	4
0	33637	18.7	4
0	33638	18.7	4
0	33640	18.7	4
0	33641	18.7	4
0	33642	18.7	4
0	33643	18.7	4
0	33644	18.7	4
0	33822	18.75	4
0	33823	18.75	4
0	33824	18.75	4
0	33825	18.75	4
0	33826	18.75	4
0	33924	18.8	4
0	33925	18.8	4
0	33926	18.8	4
0	33927	18.8	4
0	33928	18.8	4
0	33930	18.8	4
0	33931	18.8	4
0	33932	18.8	4
0	33933	18.8	4
0	33934	18.8	4
0	33985	18.85	4
0	33986	18.85	4
0	33987	18.85	4
0	33988	18.85	4
0	33989	18.85	4
0	34053	18.9	4
0	34054	18.9	4
0	34055	18.9	4
0	34056	18.9	4
0	34057	18.9	4
0	34059	18.9	4
0	34060	18.9	4
0	34061	18.9	4
0	34062	18.9	4
0	34063	18.9	4
0	34114	18.95	4
0	34115	18.95	4
0	34116	18.95	4
0	34117	18.95	4
0	34118	18.95	4
0	34182	19	4
0	34183	19	4
0	34184	19	4
0	34185	19	4
0	34186	19	4
0	34188	19	4
0	34189	19	4
0	34190	19	4
0	34191	19	4
0	34192	19	4
0	34266	19.05	4
0	34267	19.05	4
0	34268	19.05	4
0	34269	19.05	4
0	34270	19.05	4
0	34339	19.1	4
0	34340	19.1	4
0	34341	19.1	4
0	34342	19.1	4
0	34343	19.1	4
0	34345	19.1	4
0	34346	19.1	4
0	34347	19.1	4
0	34348	19.1	4
0	34349	19.1	4
0	34452	19.15	4
0	34453	19.15	4
0	34454	19.15	4
0	34455	19.15	4
0	34456	19.15	4
0	34497	19.2	4
0	34498	19.2	4
0	34499	19.2	4
0	34500	19.2	4
0	34501	19.2	4
0	34503	19.2	4
0	34504	19.2	4
0	34505	19.2	4
0	34506	19.2	4
0	34507	19.2	4
0	34581	19.25	4
0	34582	19.25	4
0	34583	19.25	4
0	34584	19.25	4
0	34585	19.25	4
0	34776	19.3	4
0	34777	19.3	4
0	34778	19.3	4
0	34779	19.3	4
0	34780	19.3	4
0	34782	19.3	4
0	34783	19.3	4
0	34784	19.3	4
0	34785	19.3	4
0	34786	19.3	4
0	34978	19.35	4
0	34979	19.35	4
0	34980	19.35	4
0	34981	19.35	4
0	34982	19.35	4
0	35023	19.4	4
0	35024	19.4	4
0	35025	19.4	4
0	35026	19.4	4
0	35027	19.4	4
0	35029	19.4	4
0	35030	19.4	4
0	35031	19.4	4
0	35032	19.4	4
0	35033	19.4	4
0	35107	19.45	4
0	35108	19.45	4
0	35109	19.45	4
0	35110	19.45	4
0	35111	19.45	4
0	35152	19.5	4
0	35153	19.5	4
0	35154	19.5	4
0	35155	19.5	4
0	35156	19.5	4
0	35158	19.5	4
0	35159	19.5	4
0	35160	19.5	4
0	35161	19.5	4
0	35162	19.5	4
0	35236	19.55	4
0	35237	19.55	4
0	35238	19.55	4
0	35239	19.55	4
0	35240	19.55	4
0	35304	19.6	4
0	35305	19.6	4
0	35306	19.6	4
0	35307	19.6	4
0	35308	19.6	4
0	35310	19.6	4
0	35311	19.6	4
0	35312	19.6	4
0	35313	19.6	4
0	35314	19.6	4
0	35388	19.65	4
0	35389	19.65	4
0	35390	19.65	4
0	35391	19.65	4
0	35392	19.65	4
0	35473	19.7	4
0	35474	19.7	4
0	35475	19.7	4
0	35476	19.7	4
0	35477	19.7	4
0	35479	19.7	4
0	35480	19.7	4
0	35481	19.7	4
0	35482	19.7	4
0	35483	19.7	4
0	35534	19.75	4
0	35535	19.75	4
0	35536	19.75	4
0	35537	19.75	4
0	35538	19.75	4
0	35596	19.8	4
0	35597	19.8	4
0	35598	19.8	4
0	35599	19.8	4
0	35600	19.8	4
0	35602	19.8	4
0	35603	19.8	4
0	35604	19.8	4
0	35605	19.8	4
0	35606	19.8	4
0	35807	19.85	4
0	35808	19.85	4
0	35809	19.85	4
0	35810	19.85	4
0	35811	19.85	4
0	35932	19.9	4
0	35933	19.9	4
0	35934	19.9	4
0	35935	19.9	4
0	35936	19.9	4
0	35938	19.9	4
0	35939	19.9	4
0	35940	19.9	4
0	35941	19.9	4
0	35942	19.9	4
0	35993	19.95	4
0	35994	19.95	4
0	35995	19.95	4
0	35996	19.95	4
0	35997	19.95	4
0	36061	20	4
0	36062	20	4
0	36063	20	4
0	36064	20	4
0	36065	20	4
0	36067	20	4
0	36068	20	4
0	36069	20	4
0	36070	20	4
0	36071	20	4
0	36168	20.05	4
0	36169	20.05	4
0	36170	20.05	4
0	36171	20.05	4
0	36172	20.05	4
0	36241	20.1	4
0	36242	20.1	4
0	36243	20.1	4
0	36244	20.1	4
0	36245	20.1	4
0	36247	20.1	4
0	36248	20.1	4
0	36249	20.1	4
0	36250	20.1	4
0	36251	20.1	4
0	36331	20.15	4
0	36332	20.15	4
0	36333	20.15	4
0	36334	20.15	4
0	36335	20.15	4
0	36416	20.2	4
0	36417	20.2	4
0	36418	20.2	4
0	36419	20.2	4
0	36420	20.2	4
0	36422	20.2	4
0	36423	20.2	4
0	36424	20.2	4
0	36425	20.2	4
0	36426	20.2	4
0	36517	20.25	4
0	36518	20.25	4
0	36519	20.25	4
0	36520	20.25	4
0	36521	20.25	4
0	36562	20.3	4
0	36563	20.3	4
0	36564	20.3	4
0	36565	20.3	4
0	36566	20.3	4
0	36568	20.3	4
0	36569	20.3	4
0	36570	20.3	4
0	36571	20.3	4
0	36572	20.3	4
0	36646	20.35	4
0	36647	20.35	4
0	36648	20.35	4
0	36649	20.35	4
0	36650	20.35	4
0	36841	20.4	4
0	36842	20.4	4
0	36843	20.4	4
0	36844	20.4	4
0	36845	20.4	4
0	36847	20.4	4
0	36848	20.4	4
0	36849	20.4	4
0	36850	20.4	4
0	36851	20.4	4
0	37048	20.45	4
0	37049	20.45	4
0	37050	20.45	4
0	37051	20.45	4
0	37052	20.45	4
0	37093	20.5	4
0	37094	20.5	4
0	37095	20.5	4
0	37096	20.5	4
0	37097	20.5	4
0	37099	20.5	4
0	37100	20.5	4
0	37101	20.5	4
0	37102	20.5	4
0	37103	20.5	4
0	37177	20.55	4
0	37178	20.55	4
0	37179	20.55	4
0	37180	20.55	4
0	37181	20.55	4
0	37227	20.6	4
0	37228	20.6	4
0	37229	20.6	4
0	37230	20.6	4
0	37231	20.6	4
0	37233	20.6	4
0	37234	20.6	4
0	37235	20.6	4
0	37236	20.6	4
0	37237	20.6	4
0	37311	20.65	4
0	37312	20.65	4
0	37313	20.65	4
0	37314	20.65	4
0	37315	20.65	4
0	37379	20.7	4
0	37380	20.7	4
0	37381	20.7	4
0	37382	20.7	4
0	37383	20.7	4
0	37385	20.7	4
0	37386	20.7	4
0	37387	20.7	4
0	37388	20.7	4
0	37389	20.7	4
0	37463	20.75	4
0	37464	20.75	4
0	37465	20.75	4
0	37466	20.75	4
0	37467	20.75	4
0	37554	20.8	4
0	37555	20.8	4
0	37556	20.8	4
0	37557	20.8	4
0	37558	20.8	4
0	37560	20.8	4
0	37561	20.8	4
0	37562	20.8	4
0	37563	20.8	4
0	37564	20.8	4
0	37615	20.85	4
0	37616	20.85	4
0	37617	20.85	4
0	37618	20.85	4
0	37619	20.85	4
0	37683	20.9	4
0	37684	20.9	4
0	37685	20.9	4
0	37686	20.9	4
0	37687	20.9	4
0	37689	20.9	4
0	37690	20.9	4
0	37691	20.9	4
0	37692	20.9	4
0	37693	20.9	4
0	37894	20.95	4
0	37895	20.95	4
0	37896	20.95	4
0	37897	20.95	4
0	37898	20.95	4
0	37996	21	4
0	37997	21	4
0	37998	21	4
0	37999	21	4
0	38000	21	4
0	38002	21	4
0	38003	21	4
0	38004	21	4
0	38005	21	4
0	38006	21	4
0	38057	21.05	4
0	38058	21.05	4
0	38059	21.05	4
0	38060	21.05	4
0	38061	21.05	4
0	38130	21.1	4
0	38131	21.1	4
0	38132	21.1	4
0	38133	21.1	4
0	38134	21.1	4
0	38136	21.1	4
0	38137	21.1	4
0	38138	21.1	4
0	38139	21.1	4
0	38140	21.1	4
0	38197	21.15	4
0	38198	21.15	4
0	38199	21.15	4
0	38200	21.15	4
0	38201	21.15	4
0	38265	21.2	4
0	38266	21.2	4
0	38267	21.2	4
0	38268	21.2	4
0	38269	21.2	4
0	38271	21.2	4
0	38272	21.2	4
0	38273	21.2	4
0	38274	21.2	4
0	38275	21.2	4
0	38349	21.25	4
0	38350	21.25	4
0	38351	21.25	4
0	38352	21.25	4
0	38353	21.25	4
0	38411	21.3	4
0	38412	21.3	4
0	38413	21.3	4
0	38414	21.3	4
0	38415	21.3	4
0	38417	21.3	4
0	38418	21.3	4
0	38419	21.3	4
0	38420	21.3	4
0	38421	21.3	4
0	38518	21.35	4
0	38519	21.35	4
0	38520	21.35	4
0	38521	21.35	4
0	38522	21.35	4
0	38563	21.4	4
0	38564	21.4	4
0	38565	21.4	4
0	38566	21.4	4
0	38567	21.4	4
0	38569	21.4	4
0	38570	21.4	4
0	38571	21.4	4
0	38572	21.4	4
0	38573	21.4	4
0	38647	21.45	4
0	38648	21.45	4
0	38649	21.45	4
0	38650	21.45	4
0	38651	21.45	4
0	38818	21.5	4
0	38819	21.5	4
0	38820	21.5	4
0	38821	21.5	4
0	38822	21.5	4
0	38824	21.5	4
0	38825	21.5	4
0	38826	21.5	4
0	38827	21.5	4
0	38828	21.5	4
0	39020	21.55	4
0	39021	21.55	4
0	39022	21.55	4
0	39023	21.55	4
0	39024	21.55	4
0	39065	21.6	4
0	39066	21.6	4
0	39067	21.6	4
0	39068	21.6	4
0	39069	21.6	4
0	39071	21.6	4
0	39072	21.6	4
0	39073	21.6	4
0	39074	21.6	4
0	39075	21.6	4
0	39172	21.65	4
0	39173	21.65	4
0	39174	21.65	4
0	39175	21.65	4
0	39176	21.65	4
0	39217	21.7	4
0	39218	21.7	4
0	39219	21.7	4
0	39220	21.7	4
0	39221	21.7	4
0	39223	21.7	4
0	39224	21.7	4
0	39225	21.7	4
0	39226	21.7	4
0	39227	21.7	4
0	39301	21.75	4
0	39302	21.75	4
0	39303	21.75	4
0	39304	21.75	4
0	39305	21.75	4
0	39415	21.8	4
0	39416	21.8	4
0	39417	21.8	4
0	39418	21.8	4
0	39419	21.8	4
0	39421	21.8	4
0	39422	21.8	4
0	39423	21.8	4
0	39424	21.8	4
0	39425	21.8	4
0	39499	21.85	4
0	39500	21.85	4
0	39501	21.85	4
0	39502	21.85	4
0	39503	21.85	4
0	39567	21.9	4
0	39568	21.9	4
0	39569	21.9	4
0	39570	21.9	4
0	39571	21.9	4
0	39573	21.9	4
0	39574	21.9	4
0	39575	21.9	4
0	39576	21.9	4
0	39577	21.9	4
0	39651	21.95	4
0	39652	21.95	4
0	39653	21.95	4
0	39654	21.95	4
0	39655	21.95	4
0	39724	22	4
0	39725	22	4
0	39726	22	4
0	39727	22	4
0	39728	22	4
0	39730	22	4
0	39731	22	4
0	39732	22	4
0	39733	22	4
0	39734	22	4
0	39912	22.05	4
0	39913	22.05	4
0	39914	22.05	4
0	39915	22.05	4
0	39916	22.05	4
0	40019	22.1	4
0	40020	22.1	4
0	40021	22.1	4
0	40022	22.1	4
0	40023	22.1	4
0	40025	22.1	4
0	40026	22.1	4
0	40027	22.1	4
0	40028	22.1	4
0	40029	22.1	4
0	40086	22.15	4
0	40087	22.15	4
0	40088	22.15	4
0	40089	22.15	4
0	40090	22.15	4
0	40177	22.2	4
0	40178	22.2	4
0	40179	22.2	4
0	40180	22.2	4
0	40181	22.2	4
0	40183	22.2	4
0	40184	22.2	4
0	40185	22.2	4
0	40186	22.2	4
0	40187	22.2	4
0	40238	22.25	4
0	40239	22.25	4
0	40240	22.25	4
0	40241	22.25	4
0	40242	22.25	4
0	40306	22.3	4
0	40307	22.3	4
0	40308	22.3	4
0	40309	22.3	4
0	40310	22.3	4
0	40312	22.3	4
0	40313	22.3	4
0	40314	22.3	4
0	40315	22.3	4
0	40316	22.3	4
0	40418	22.35	4
0	40419	22.35	4
0	40420	22.35	4
0	40421	22.35	4
0	40422	22.35	4
0	40486	22.4	4
0	40487	22.4	4
0	40488	22.4	4
0	40489	22.4	4
0	40490	22.4	4
0	40492	22.4	4
0	40493	22.4	4
0	40494	22.4	4
0	40495	22.4	4
0	40496	22.4	4
0	40552	22.45	4
0	40553	22.45	4
0	40554	22.45	4
0	40555	22.45	4
0	40556	22.45	4
0	40602	22.5	4
0	40603	22.5	4
0	40604	22.5	4
0	40605	22.5	4
0	40606	22.5	4
0	40608	22.5	4
0	40609	22.5	4
0	40610	22.5	4
0	40611	22.5	4
0	40612	22.5	4
0	40686	22.55	4
0	40687	22.55	4
0	40688	22.55	4
0	40689	22.55	4
0	40690	22.55	4
0	40843	22.6	4
0	40844	22.6	4
0	40845	22.6	4
0	40846	22.6	4
0	40847	22.6	4
0	40849	22.6	4
0	40850	22.6	4
0	40851	22.6	4
0	40852	22.6	4
0	40853	22.6	4
0	41010	22.65	4
0	41011	22.65	4
0	41012	22.65	4
0	41013	22.65	4
0	41014	22.65	4
0	41055	22.7	4
0	41056	22.7	4
0	41057	22.7	4
0	41058	22.7	4
0	41059	22.7	4
0	41061	22.7	4
0	41062	22.7	4
0	41063	22.7	4
0	41064	22.7	4
0	41065	22.7	4
0	41139	22.75	4
0	41140	22.75	4
0	41141	22.75	4
0	41142	22.75	4
0	41143	22.75	4
0	41184	22.8	4
0	41185	22.8	4
0	41186	22.8	4
0	41187	22.8	4
0	41188	22.8	4
0	41190	22.8	4
0	41191	22.8	4
0	41192	22.8	4
0	41193	22.8	4
0	41194	22.8	4
0	41245	22.85	4
0	41246	22.85	4
0	41247	22.85	4
0	41248	22.85	4
0	41249	22.85	4
0	41313	22.9	4
0	41314	22.9	4
0	41315	22.9	4
0	41316	22.9	4
0	41317	22.9	4
0	41319	22.9	4
0	41320	22.9	4
0	41321	22.9	4
0	41322	22.9	4
0	41323	22.9	4
0	41402	22.95	4
0	41403	22.95	4
0	41404	22.95	4
0	41405	22.95	4
0	41406	22.95	4
0	41447	23	4
0	41448	23	4
0	41449	23	4
0	41450	23	4
0	41451	23	4
0	41453	23	4
0	41454	23	4
0	41455	23	4
0	41456	23	4
0	41457	23	4
0	41508	23.05	4
0	41509	23.05	4
0	41510	23.05	4
0	41511	23.05	4
0	41512	23.05	4
0	41604	23.1	4
0	41605	23.1	4
0	41606	23.1	4
0	41607	23.1	4
0	41608	23.1	4
0	41610	23.1	4
0	41611	23.1	4
0	41612	23.1	4
0	41613	23.1	4
0	41614	23.1	4
0	41807	23.15	4
0	41808	23.15	4
0	41809	23.15	4
0	41810	23.15	4
0	41811	23.15	4
0	41907	23.2	4
0	41908	23.2	4
0	41909	23.2	4
0	41910	23.2	4
0	41911	23.2	4
0	41913	23.2	4
0	41914	23.2	4
0	41915	23.2	4
0	41916	23.2	4
0	41917	23.2	4
0	41968	23.25	4
0	41969	23.25	4
0	41970	23.25	4
0	41971	23.25	4
0	41972	23.25	4
0	42059	23.3	4
0	42060	23.3	4
0	42061	23.3	4
0	42062	23.3	4
0	42063	23.3	4
0	42065	23.3	4
0	42066	23.3	4
0	42067	23.3	4
0	42068	23.3	4
0	42069	23.3	4
0	42120	23.35	4
0	42121	23.35	4
0	42122	23.35	4
0	42123	23.35	4
0	42124	23.35	4
0	42165	23.4	4
0	42166	23.4	4
0	42167	23.4	4
0	42168	23.4	4
0	42169	23.4	4
0	42171	23.4	4
0	42172	23.4	4
0	42173	23.4	4
0	42174	23.4	4
0	42175	23.4	4
0	42249	23.45	4
0	42250	23.45	4
0	42251	23.45	4
0	42252	23.45	4
0	42253	23.45	4
0	42340	23.5	4
0	42341	23.5	4
0	42342	23.5	4
0	42343	23.5	4
0	42344	23.5	4
0	42346	23.5	4
0	42347	23.5	4
0	42348	23.5	4
0	42349	23.5	4
0	42350	23.5	4
0	42401	23.55	4
0	42402	23.55	4
0	42403	23.55	4
0	42404	23.55	4
0	42405	23.55	4
0	42446	23.6	4
0	42447	23.6	4
0	42448	23.6	4
0	42449	23.6	4
0	42450	23.6	4
0	42452	23.6	4
0	42453	23.6	4
0	42454	23.6	4
0	42455	23.6	4
0	42456	23.6	4
0	42553	23.65	4
0	42554	23.65	4
0	42555	23.65	4
0	42556	23.65	4
0	42557	23.65	4
0	42726	23.7	4
0	42727	23.7	4
0	42728	23.7	4
0	42729	23.7	4
0	42730	23.7	4
0	42732	23.7	4
0	42733	23.7	4
0	42734	23.7	4
0	42735	23.7	4
0	42736	23.7	4
0	42893	23.75	4
0	42894	23.75	4
0	42895	23.75	4
0	42896	23.75	4
0	42897	23.75	4
0	42961	23.8	4
0	42962	23.8	4
0	42963	23.8	4
0	42964	23.8	4
0	42965	23.8	4
0	42967	23.8	4
0	42968	23.8	4
0	42969	23.8	4
0	42970	23.8	4
0	42971	23.8	4
0	43068	23.85	4
0	43069	23.85	4
0	43070	23.85	4
0	43071	23.85	4
0	43072	23.85	4
0	43136	23.9	4
0	43137	23.9	4
0	43138	23.9	4
0	43139	23.9	4
0	43140	23.9	4
0	43142	23.9	4
0	43143	23.9	4
0	43144	23.9	4
0	43145	23.9	4
0	43146	23.9	4
0	43225	23.95	4
0	43226	23.95	4
0	43227	23.95	4
0	43228	23.95	4
0	43229	23.95	4
0	43293	24	4
0	43294	24	4
0	43295	24	4
0	43296	24	4
0	43297	24	4
0	43299	24	4
0	43300	24	4
0	43301	24	4
0	43302	24	4
0	43303	24	4
0	43405	24.05	4
0	43406	24.05	4
0	43407	24.05	4
0	43408	24.05	4
0	43409	24.05	4
0	43478	24.1	4
0	43479	24.1	4
0	43480	24.1	4
0	43481	24.1	4
0	43482	24.1	4
0	43484	24.1	4
0	43485	24.1	4
0	43486	24.1	4
0	43487	24.1	4
0	43488	24.1	4
0	43545	24.15	4
0	43546	24.15	4
0	43547	24.15	4
0	43548	24.15	4
0	43549	24.15	4
0	43613	24.2	4
0	43614	24.2	4
0	43615	24.2	4
0	43616	24.2	4
0	43617	24.2	4
0	43619	24.2	4
0	43620	24.2	4
0	43621	24.2	4
0	43622	24.2	4
0	43623	24.2	4
0	43810	24.25	4
0	43811	24.25	4
0	43812	24.25	4
0	43813	24.25	4
0	43814	24.25	4
0	43964	24.3	4
0	43965	24.3	4
0	43966	24.3	4
0	43967	24.3	4
0	43968	24.3	4
0	43970	24.3	4
0	43971	24.3	4
0	43972	24.3	4
0	43973	24.3	4
0	43974	24.3	4
0	44048	24.35	4
0	44049	24.35	4
0	44050	24.35	4
0	44051	24.35	4
0	44052	24.35	4
0	44139	24.4	4
0	44140	24.4	4
0	44141	24.4	4
0	44142	24.4	4
0	44143	24.4	4
0	44145	24.4	4
0	44146	24.4	4
0	44147	24.4	4
0	44148	24.4	4
0	44149	24.4	4
0	44217	24.45	4
0	44218	24.45	4
0	44219	24.45	4
0	44220	24.45	4
0	44221	24.45	4
0	44308	24.5	4
0	44309	24.5	4
0	44310	24.5	4
0	44311	24.5	4
0	44312	24.5	4
0	44314	24.5	4
0	44315	24.5	4
0	44316	24.5	4
0	44317	24.5	4
0	44318	24.5	4
0	44392	24.55	4
0	44393	24.55	4
0	44394	24.55	4
0	44395	24.55	4
0	44396	24.55	4
0	44483	24.6	4
0	44484	24.6	4
0	44485	24.6	4
0	44486	24.6	4
0	44487	24.6	4
0	44489	24.6	4
0	44490	24.6	4
0	44491	24.6	4
0	44492	24.6	4
0	44493	24.6	4
0	44549	24.65	4
0	44550	24.65	4
0	44551	24.65	4
0	44552	24.65	4
0	44553	24.65	4
0	44594	24.7	4
0	44595	24.7	4
0	44596	24.7	4
0	44597	24.7	4
0	44598	24.7	4
0	44600	24.7	4
0	44601	24.7	4
0	44602	24.7	4
0	44603	24.7	4
0	44604	24.7	4
0	44678	24.75	4
0	44679	24.75	4
0	44680	24.75	4
0	44681	24.75	4
0	44682	24.75	4
0	44839	24.8	4
0	44840	24.8	4
0	44841	24.8	4
0	44842	24.8	4
0	44843	24.8	4
0	44845	24.8	4
0	44846	24.8	4
0	44847	24.8	4
0	44848	24.8	4
0	44849	24.8	4
0	44969	24.85	4
0	44970	24.85	4
0	44971	24.85	4
0	44972	24.85	4
0	44973	24.85	4
0	45037	24.9	4
0	45038	24.9	4
0	45039	24.9	4
0	45040	24.9	4
0	45041	24.9	4
0	45043	24.9	4
0	45044	24.9	4
0	45045	24.9	4
0	45046	24.9	4
0	45047	24.9	4
0	45126	24.95	4
0	45127	24.95	4
0	45128	24.95	4
0	45129	24.95	4
0	45130	24.95	4
0	45194	25	4
0	45195	25	4
0	45196	25	4
0	45197	25	4
0	45198	25	4
0	45200	25	4
0	45201	25	4
0	45202	25	4
0	45203	25	4
0	45204	25	4
0	45278	25.05	4
0	45279	25.05	4
0	45280	25.05	4
0	45281	25.05	4
0	45282	25.05	4
0	45328	25.1	4
0	45329	25.1	4
0	45330	25.1	4
0	45331	25.1	4
0	45332	25.1	4
0	45334	25.1	4
0	45335	25.1	4
0	45336	25.1	4
0	45337	25.1	4
0	45338	25.1	4
0	45441	25.15	4
0	45442	25.15	4
0	45443	25.15	4
0	45444	25.15	4
0	45445	25.15	4
0	45486	25.2	4
0	45487	25.2	4
0	45488	25.2	4
0	45489	25.2	4
0	45490	25.2	4
0	45492	25.2	4
0	45493	25.2	4
0	45494	25.2	4
0	45495	25.2	4
0	45496	25.2	4
0	45570	25.25	4
0	45571	25.25	4
0	45572	25.25	4
0	45573	25.25	4
0	45574	25.25	4
0	45638	25.3	4
0	45639	25.3	4
0	45640	25.3	4
0	45641	25.3	4
0	45642	25.3	4
0	45644	25.3	4
0	45645	25.3	4
0	45646	25.3	4
0	45647	25.3	4
0	45648	25.3	4
0	45803	25.35	4
0	45804	25.35	4
0	45805	25.35	4
0	45806	25.35	4
0	45807	25.35	4
0	45944	25.4	4
0	45945	25.4	4
0	45946	25.4	4
0	45947	25.4	4
0	45948	25.4	4
0	45950	25.4	4
0	45951	25.4	4
0	45952	25.4	4
0	45953	25.4	4
0	45954	25.4	4
0	46028	25.45	4
0	46029	25.45	4
0	46030	25.45	4
0	46031	25.45	4
0	46032	25.45	4
0	46096	25.5	4
0	46097	25.5	4
0	46098	25.5	4
0	46099	25.5	4
0	46100	25.5	4
0	46102	25.5	4
0	46103	25.5	4
0	46104	25.5	4
0	46105	25.5	4
0	46106	25.5	4
0	46180	25.55	4
0	46181	25.55	4
0	46182	25.55	4
0	46183	25.55	4
0	46184	25.55	4
0	46248	25.6	4
0	46249	25.6	4
0	46250	25.6	4
0	46251	25.6	4
0	46252	25.6	4
0	46254	25.6	4
0	46255	25.6	4
0	46256	25.6	4
0	46257	25.6	4
0	46258	25.6	4
0	46309	25.65	4
0	46310	25.65	4
0	46311	25.65	4
0	46312	25.65	4
0	46313	25.65	4
0	46400	25.7	4
0	46401	25.7	4
0	46402	25.7	4
0	46403	25.7	4
0	46404	25.7	4
0	46406	25.7	4
0	46407	25.7	4
0	46408	25.7	4
0	46409	25.7	4
0	46410	25.7	4
0	46461	25.75	4
0	46462	25.75	4
0	46463	25.75	4
0	46464	25.75	4
0	46465	25.75	4
0	46529	25.8	4
0	46530	25.8	4
0	46531	25.8	4
0	46532	25.8	4
0	46533	25.8	4
0	46535	25.8	4
0	46536	25.8	4
0	46537	25.8	4
0	46538	25.8	4
0	46539	25.8	4
0	46613	25.85	4
0	46614	25.85	4
0	46615	25.85	4
0	46616	25.85	4
0	46617	25.85	4
0	46773	25.9	4
0	46774	25.9	4
0	46775	25.9	4
0	46776	25.9	4
0	46777	25.9	4
0	46779	25.9	4
0	46780	25.9	4
0	46781	25.9	4
0	46782	25.9	4
0	46783	25.9	4
0	46857	25.95	4
0	46858	25.95	4
0	46859	25.95	4
0	46860	25.95	4
0	46861	25.95	4
0	46925	26	4
0	46926	26	4
0	46927	26	4
0	46928	26	4
0	46929	26	4
0	46931	26	4
0	46932	26	4
0	46933	26	4
0	46934	26	4
0	46935	26	4
0	47009	26.05	4
0	47010	26.05	4
0	47011	26.05	4
0	47012	26.05	4
0	47013	26.05	4
0	47087	26.1	4
0	47088	26.1	4
0	47089	26.1	4
0	47090	26.1	4
0	47091	26.1	4
0	47093	26.1	4
0	47094	26.1	4
0	47095	26.1	4
0	47096	26.1	4
0	47097	26.1	4
0	47200	26.15	4
0	47201	26.15	4
0	47202	26.15	4
0	47203	26.15	4
0	47204	26.15	4
0	47245	26.2	4
0	47246	26.2	4
0	47247	26.2	4
0	47248	26.2	4
0	47249	26.2	4
0	47251	26.2	4
0	47252	26.2	4
0	47253	26.2	4
0	47254	26.2	4
0	47255	26.2	4
0	47346	26.25	4
0	47347	26.25	4
0	47348	26.25	4
0	47349	26.25	4
0	47350	26.25	4
0	47414	26.3	4
0	47415	26.3	4
0	47416	26.3	4
0	47417	26.3	4
0	47418	26.3	4
0	47420	26.3	4
0	47421	26.3	4
0	47422	26.3	4
0	47423	26.3	4
0	47424	26.3	4
0	47492	26.35	4
0	47493	26.35	4
0	47494	26.35	4
0	47495	26.35	4
0	47496	26.35	4
0	47577	26.4	4
0	47578	26.4	4
0	47579	26.4	4
0	47580	26.4	4
0	47581	26.4	4
0	47583	26.4	4
0	47584	26.4	4
0	47585	26.4	4
0	47586	26.4	4
0	47587	26.4	4
0	47762	26.45	4
0	47763	26.45	4
0	47764	26.45	4
0	47765	26.45	4
0	47766	26.45	4
0	47857	26.5	4
0	47858	26.5	4
0	47859	26.5	4
0	47860	26.5	4
0	47861	26.5	4
0	47863	26.5	4
0	47864	26.5	4
0	47865	26.5	4
0	47866	26.5	4
0	47867	26.5	4
0	47964	26.55	4
0	47965	26.55	4
0	47966	26.55	4
0	47967	26.55	4
0	47968	26.55	4
0	48014	26.6	4
0	48015	26.6	4
0	48016	26.6	4
0	48017	26.6	4
0	48018	26.6	4
0	48020	26.6	4
0	48021	26.6	4
0	48022	26.6	4
0	48023	26.6	4
0	48024	26.6	4
0	48098	26.65	4
0	48099	26.65	4
0	48100	26.65	4
0	48101	26.65	4
0	48102	26.65	4
0	48171	26.7	4
0	48172	26.7	4
0	48173	26.7	4
0	48174	26.7	4
0	48175	26.7	4
0	48177	26.7	4
0	48178	26.7	4
0	48179	26.7	4
0	48180	26.7	4
0	48181	26.7	4
0	48232	26.75	4
0	48233	26.75	4
0	48234	26.75	4
0	48235	26.75	4
0	48236	26.75	4
0	48323	26.8	4
0	48324	26.8	4
0	48325	26.8	4
0	48326	26.8	4
0	48327	26.8	4
0	48329	26.8	4
0	48330	26.8	4
0	48331	26.8	4
0	48332	26.8	4
0	48333	26.8	4
0	48384	26.85	4
0	48385	26.85	4
0	48386	26.85	4
0	48387	26.85	4
0	48388	26.85	4
0	48452	26.9	4
0	48453	26.9	4
0	48454	26.9	4
0	48455	26.9	4
0	48456	26.9	4
0	48458	26.9	4
0	48459	26.9	4
0	48460	26.9	4
0	48461	26.9	4
0	48462	26.9	4
0	48541	26.95	4
0	48542	26.95	4
0	48543	26.95	4
0	48544	26.95	4
0	48545	26.95	4
0	48683	27	4
0	48684	27	4
0	48685	27	4
0	48686	27	4
0	48687	27	4
0	48689	27	4
0	48690	27	4
0	48691	27	4
0	48692	27	4
0	48693	27	4
0	48749	27.05	4
0	48750	27.05	4
0	48751	27.05	4
0	48752	27.05	4
0	48753	27.05	4
0	48822	27.1	4
0	48823	27.1	4
0	48824	27.1	4
0	48825	27.1	4
0	48826	27.1	4
0	48828	27.1	4
0	48829	27.1	4
0	48830	27.1	4
0	48831	27.1	4
0	48832	27.1	4
0	48889	27.15	4
0	48890	27.15	4
0	48891	27.15	4
0	48892	27.15	4
0	48893	27.15	4
0	48957	27.2	4
0	48958	27.2	4
0	48959	27.2	4
0	48960	27.2	4
0	48961	27.2	4
0	48963	27.2	4
0	48964	27.2	4
0	48965	27.2	4
0	48966	27.2	4
0	48967	27.2	4
0	49041	27.25	4
0	49042	27.25	4
0	49043	27.25	4
0	49044	27.25	4
0	49045	27.25	4
0	49109	27.3	4
0	49110	27.3	4
0	49111	27.3	4
0	49112	27.3	4
0	49113	27.3	4
0	49115	27.3	4
0	49116	27.3	4
0	49117	27.3	4
0	49118	27.3	4
0	49119	27.3	4
0	49216	27.35	4
0	49217	27.35	4
0	49218	27.35	4
0	49219	27.35	4
0	49220	27.35	4
0	49261	27.4	4
0	49262	27.4	4
0	49263	27.4	4
0	49264	27.4	4
0	49265	27.4	4
0	49267	27.4	4
0	49268	27.4	4
0	49269	27.4	4
0	49270	27.4	4
0	49271	27.4	4
0	49345	27.45	4
0	49346	27.45	4
0	49347	27.45	4
0	49348	27.45	4
0	49349	27.45	4
0	49413	27.5	4
0	49414	27.5	4
0	49415	27.5	4
0	49416	27.5	4
0	49417	27.5	4
0	49419	27.5	4
0	49420	27.5	4
0	49421	27.5	4
0	49422	27.5	4
0	49423	27.5	4
0	49581	27.55	4
0	49582	27.55	4
0	49583	27.55	4
0	49584	27.55	4
0	49585	27.55	4
0	49653	27.6	4
0	49654	27.6	4
0	49655	27.6	4
0	49656	27.6	4
0	49657	27.6	4
0	49659	27.6	4
0	49660	27.6	4
0	49661	27.6	4
0	49662	27.6	4
0	49663	27.6	4
0	49737	27.65	4
0	49738	27.65	4
0	49739	27.65	4
0	49740	27.65	4
0	49741	27.65	4
0	49782	27.7	4
0	49783	27.7	4
0	49784	27.7	4
0	49785	27.7	4
0	49786	27.7	4
0	49788	27.7	4
0	49789	27.7	4
0	49790	27.7	4
0	49791	27.7	4
0	49792	27.7	4
0	49866	27.75	4
0	49867	27.75	4
0	49868	27.75	4
0	49869	27.75	4
0	49870	27.75	4
0	49934	27.8	4
0	49935	27.8	4
0	49936	27.8	4
0	49937	27.8	4
0	49938	27.8	4
0	49940	27.8	4
0	49941	27.8	4
0	49942	27.8	4
0	49943	27.8	4
0	49944	27.8	4
0	50018	27.85	4
0	50019	27.85	4
0	50020	27.85	4
0	50021	27.85	4
0	50022	27.85	4
0	50132	27.9	4
0	50133	27.9	4
0	50134	27.9	4
0	50135	27.9	4
0	50136	27.9	4
0	50138	27.9	4
0	50139	27.9	4
0	50140	27.9	4
0	50141	27.9	4
0	50142	27.9	4
0	50193	27.95	4
0	50194	27.95	4
0	50195	27.95	4
0	50196	27.95	4
0	50197	27.95	4
0	50266	28	4
0	50267	28	4
0	50268	28	4
0	50269	28	4
0	50270	28	4
0	50272	28	4
0	50273	28	4
0	50274	28	4
0	50275	28	4
0	50276	28	4
0	50411	28.05	4
0	50412	28.05	4
0	50413	28.05	4
0	50414	28.05	4
0	50415	28.05	4
0	50559	28.1	4
0	50560	28.1	4
0	50561	28.1	4
0	50562	28.1	4
0	50563	28.1	4
0	50565	28.1	4
0	50566	28.1	4
0	50567	28.1	4
0	50568	28.1	4
0	50569	28.1	4
0	50649	28.15	4
0	50650	28.15	4
0	50651	28.15	4
0	50652	28.15	4
0	50653	28.15	4
0	50722	28.2	4
0	50723	28.2	4
0	50724	28.2	4
0	50725	28.2	4
0	50726	28.2	4
0	50728	28.2	4
0	50729	28.2	4
0	50730	28.2	4
0	50731	28.2	4
0	50732	28.2	4
0	50783	28.25	4
0	50784	28.25	4
0	50785	28.25	4
0	50786	28.25	4
0	50787	28.25	4
0	50856	28.3	4
0	50857	28.3	4
0	50858	28.3	4
0	50859	28.3	4
0	50860	28.3	4
0	50862	28.3	4
0	50863	28.3	4
0	50864	28.3	4
0	50865	28.3	4
0	50866	28.3	4
0	50917	28.35	4
0	50918	28.35	4
0	50919	28.35	4
0	50920	28.35	4
0	50921	28.35	4
0	50985	28.4	4
0	50986	28.4	4
0	50987	28.4	4
0	50988	28.4	4
0	50989	28.4	4
0	50991	28.4	4
0	50992	28.4	4
0	50993	28.4	4
0	50994	28.4	4
0	50995	28.4	4
0	51109	28.45	4
0	51110	28.45	4
0	51111	28.45	4
0	51112	28.45	4
0	51113	28.45	4
0	51177	28.5	4
0	51178	28.5	4
0	51179	28.5	4
0	51180	28.5	4
0	51181	28.5	4
0	51183	28.5	4
0	51184	28.5	4
0	51185	28.5	4
0	51186	28.5	4
0	51187	28.5	4
0	51261	28.55	4
0	51262	28.55	4
0	51263	28.55	4
0	51264	28.55	4
0	51265	28.55	4
0	51357	28.6	4
0	51358	28.6	4
0	51359	28.6	4
0	51360	28.6	4
0	51361	28.6	4
0	51363	28.6	4
0	51364	28.6	4
0	51365	28.6	4
0	51366	28.6	4
0	51367	28.6	4
0	51548	28.65	4
0	51549	28.65	4
0	51550	28.65	4
0	51551	28.65	4
0	51552	28.65	4
0	51620	28.7	4
0	51621	28.7	4
0	51622	28.7	4
0	51623	28.7	4
0	51624	28.7	4
0	51626	28.7	4
0	51627	28.7	4
0	51628	28.7	4
0	51629	28.7	4
0	51630	28.7	4
0	51681	28.75	4
0	51682	28.75	4
0	51683	28.75	4
0	51684	28.75	4
0	51685	28.75	4
0	51726	28.8	4
0	51727	28.8	4
0	51728	28.8	4
0	51729	28.8	4
0	51730	28.8	4
0	51732	28.8	4
0	51733	28.8	4
0	51734	28.8	4
0	51735	28.8	4
0	51736	28.8	4
0	51792	28.85	4
0	51793	28.85	4
0	51794	28.85	4
0	51795	28.85	4
0	51796	28.85	4
0	51837	28.9	4
0	51838	28.9	4
0	51839	28.9	4
0	51840	28.9	4
0	51841	28.9	4
0	51843	28.9	4
0	51844	28.9	4
0	51845	28.9	4
0	51846	28.9	4
0	51847	28.9	4
0	51921	28.95	4
0	51922	28.95	4
0	51923	28.95	4
0	51924	28.95	4
0	51925	28.95	4
0	52017	29	4
0	52018	29	4
0	52019	29	4
0	52020	29	4
0	52021	29	4
0	52023	29	4
0	52024	29	4
0	52025	29	4
0	52026	29	4
0	52027	29	4
0	52101	29.05	4
0	52102	29.05	4
0	52103	29.05	4
0	52104	29.05	4
0	52105	29.05	4
0	52174	29.1	4
0	52175	29.1	4
0	52176	29.1	4
0	52177	29.1	4
0	52178	29.1	4
0	52180	29.1	4
0	52181	29.1	4
0	52182	29.1	4
0	52183	29.1	4
0	52184	29.1	4
0	52287	29.15	4
0	52288	29.15	4
0	52289	29.15	4
0	52290	29.15	4
0	52291	29.15	4
0	52456	29.2	4
0	52457	29.2	4
0	52458	29.2	4
0	52459	29.2	4
0	52460	29.2	4
0	52462	29.2	4
0	52463	29.2	4
0	52464	29.2	4
0	52465	29.2	4
0	52466	29.2	4
0	52544	29.25	4
0	52545	29.25	4
0	52546	29.25	4
0	52547	29.25	4
0	52548	29.25	4
0	52589	29.3	4
0	52590	29.3	4
0	52591	29.3	4
0	52592	29.3	4
0	52593	29.3	4
0	52595	29.3	4
0	52596	29.3	4
0	52597	29.3	4
0	52598	29.3	4
0	52599	29.3	4
0	52650	29.35	4
0	52651	29.35	4
0	52652	29.35	4
0	52653	29.35	4
0	52654	29.35	4
0	52718	29.4	4
0	52719	29.4	4
0	52720	29.4	4
0	52721	29.4	4
0	52722	29.4	4
0	52724	29.4	4
0	52725	29.4	4
0	52726	29.4	4
0	52727	29.4	4
0	52728	29.4	4
0	52779	29.45	4
0	52780	29.45	4
0	52781	29.45	4
0	52782	29.45	4
0	52783	29.45	4
0	52847	29.5	4
0	52848	29.5	4
0	52849	29.5	4
0	52850	29.5	4
0	52851	29.5	4
0	52853	29.5	4
0	52854	29.5	4
0	52855	29.5	4
0	52856	29.5	4
0	52857	29.5	4
0	52959	29.55	4
0	52960	29.55	4
0	52961	29.55	4
0	52962	29.55	4
0	52963	29.55	4
0	53027	29.6	4
0	53028	29.6	4
0	53029	29.6	4
0	53030	29.6	4
0	53031	29.6	4
0	53033	29.6	4
0	53034	29.6	4
0	53035	29.6	4
0	53036	29.6	4
0	53037	29.6	4
0	53111	29.65	4
0	53112	29.65	4
0	53113	29.65	4
0	53114	29.65	4
0	53115	29.65	4
0	53179	29.7	4
0	53180	29.7	4
0	53181	29.7	4
0	53182	29.7	4
0	53183	29.7	4
0	53185	29.7	4
0	53186	29.7	4
0	53187	29.7	4
0	53188	29.7	4
0	53189	29.7	4
0	53327	29.75	4
0	53328	29.75	4
0	53329	29.75	4
0	53330	29.75	4
0	53331	29.75	4
0	53386	29.8	4
0	53387	29.8	4
0	53388	29.8	4
0	53389	29.8	4
0	53390	29.8	4
0	53392	29.8	4
0	53393	29.8	4
0	53394	29.8	4
0	53395	29.8	4
0	53396	29.8	4
0	53447	29.85	4
0	53448	29.85	4
0	53449	29.85	4
0	53450	29.85	4
0	53451	29.85	4
0	53531	29.9	4
0	53532	29.9	4
0	53533	29.9	4
0	53534	29.9	4
0	53535	29.9	4
0	53537	29.9	4
0	53538	29.9	4
0	53539	29.9	4
0	53540	29.9	4
0	53541	29.9	4
0	53640	29.95	4
0	53641	29.95	4
0	53642	29.95	4
0	53643	29.95	4
0	53644	29.95	4
0	53687	30	3
0	53688	30	4
0	53689	30	2
0	53690	30	3
0	53691	30	4
0	53693	30	3
0	53694	30	4
0	53695	30	2
0	53696	30	3
0	53697	30	4
0	53806	30.05	3
0	53807	30.05	4
0	53808	30.05	2
0	53809	30.05	3
0	53810	30.05	4
0	53964	30.1	3
0	53965	30.1	4
0	53966	30.1	2
0	53967	30.1	3
0	53968	30.1	4
0	53970	30.1	3
0	53971	30.1	4
0	53972	30.1	2
0	53973	30.1	3
0	53974	30.1	4
0	54031	30.15	3
0	54032	30.15	4
0	54033	30.15	2
0	54034	30.15	3
0	54035	30.15	4
0	54122	30.2	3
0	54123	30.2	4
0	54124	30.2	2
0	54125	30.2	3
0	54126	30.2	4
0	54128	30.2	3
0	54129	30.2	4
0	54130	30.2	2
0	54131	30.2	3
0	54132	30.2	4
0	54206	30.25	3
0	54207	30.25	4
0	54208	30.25	2
0	54209	30.25	3
0	54210	30.25	4
0	54366	30.3	3
0	54367	30.3	4
0	54368	30.3	2
0	54369	30.3	3
0	54370	30.3	4
0	54372	30.3	3
0	54373	30.3	4
0	54374	30.3	2
0	54375	30.3	3
0	54376	30.3	4
0	54511	30.35	3
0	54512	30.35	4
0	54513	30.35	2
0	54514	30.35	3
0	54515	30.35	4
0	54575	30.4	3
0	54576	30.4	4
0	54577	30.4	2
0	54578	30.4	3
0	54579	30.4	4
0	54581	30.4	3
0	54582	30.4	4
0	54583	30.4	2
0	54584	30.4	3
0	54585	30.4	4
0	54636	30.45	3
0	54637	30.45	4
0	54638	30.45	2
0	54639	30.45	3
0	54640	30.45	4
0	54704	30.5	3
0	54705	30.5	4
0	54706	30.5	2
0	54707	30.5	3
0	54708	30.5	4
0	54710	30.5	3
0	54711	30.5	4
0	54712	30.5	2
0	54713	30.5	3
0	54714	30.5	4
0	54765	30.55	3
0	54766	30.55	4
0	54767	30.55	2
0	54768	30.55	3
0	54769	30.55	4
0	54832	30.6	3
0	54833	30.6	4
0	54834	30.6	2
0	54835	30.6	3
0	54836	30.6	4
0	54838	30.6	3
0	54839	30.6	4
0	54840	30.6	2
0	54841	30.6	3
0	54842	30.6	4
0	54939	30.65	3
0	54940	30.65	4
0	54941	30.65	2
0	54942	30.65	3
0	54943	30.65	4
0	54984	30.7	3
0	54985	30.7	4
0	54986	30.7	2
0	54987	30.7	3
0	54988	30.7	4
0	54990	30.7	3
0	54991	30.7	4
0	54992	30.7	2
0	54993	30.7	3
0	54994	30.7	4
0	55073	30.75	3
0	55074	30.75	4
0	55075	30.75	2
0	55076	30.75	3
0	55077	30.75	4
0	55141	30.8	3
0	55142	30.8	4
0	55143	30.8	2
0	55144	30.8	3
0	55145	30.8	4
0	55147	30.8	3
0	55148	30.8	4
0	55149	30.8	2
0	55150	30.8	3
0	55151	30.8	4
0	55276	30.85	3
0	55277	30.85	4
0	55278	30.85	2
0	55279	30.85	3
0	55280	30.85	4
0	55377	30.9	3
0	55378	30.9	4
0	55379	30.9	2
0	55380	30.9	3
0	55381	30.9	4
0	55383	30.9	3
0	55384	30.9	4
0	55385	30.9	2
0	55386	30.9	3
0	55387	30.9	4
0	55495	30.95	3
0	55496	30.95	4
0	55497	30.95	2
0	55498	30.95	3
0	55499	30.95	4
0	55542	31	3
0	55543	31	4
0	55544	31	2
0	55545	31	3
0	55546	31	4
0	55548	31	3
0	55549	31	4
0	55550	31	2
0	55551	31	3
0	55552	31	4
0	55626	31.05	3
0	55627	31.05	4
0	55628	31.05	2
0	55629	31.05	3
0	55630	31.05	4
0	55676	31.1	3
0	55677	31.1	4
0	55678	31.1	2
0	55679	31.1	3
0	55680	31.1	4
0	55682	31.1	3
0	55683	31.1	4
0	55684	31.1	2
0	55685	31.1	3
0	55686	31.1	4
0	55743	31.15	3
0	55744	31.15	4
0	55745	31.15	2
0	55746	31.15	3
0	55747	31.15	4
0	55857	31.2	3
0	55858	31.2	4
0	55859	31.2	2
0	55860	31.2	3
0	55861	31.2	4
0	55863	31.2	3
0	55864	31.2	4
0	55865	31.2	2
0	55866	31.2	3
0	55867	31.2	4
0	55918	31.25	3
0	55919	31.25	4
0	55920	31.25	2
0	55921	31.25	3
0	55922	31.25	4
0	55986	31.3	3
0	55987	31.3	4
0	55988	31.3	2
0	55989	31.3	3
0	55990	31.3	4
0	55992	31.3	3
0	55993	31.3	4
0	55994	31.3	2
0	55995	31.3	3
0	55996	31.3	4
0	56075	31.35	3
0	56076	31.35	4
0	56077	31.35	2
0	56078	31.35	3
0	56079	31.35	4
0	56206	31.4	3
0	56207	31.4	4
0	56208	31.4	2
0	56209	31.4	3
0	56210	31.4	4
0	56212	31.4	3
0	56213	31.4	4
0	56214	31.4	2
0	56215	31.4	3
0	56216	31.4	4
0	56341	31.45	3
0	56342	31.45	4
0	56343	31.45	2
0	56344	31.45	3
0	56345	31.45	4
0	56467	31.5	3
0	56468	31.5	4
0	56469	31.5	2
0	56470	31.5	3
0	56471	31.5	4
0	56473	31.5	3
0	56474	31.5	4
0	56475	31.5	2
0	56476	31.5	3
0	56477	31.5	4
0	56559	31.55	3
0	56560	31.55	4
0	56561	31.55	2
0	56562	31.55	3
0	56563	31.55	4
0	56627	31.6	3
0	56628	31.6	4
0	56629	31.6	2
0	56630	31.6	3
0	56631	31.6	4
0	56633	31.6	3
0	56634	31.6	4
0	56635	31.6	2
0	56636	31.6	3
0	56637	31.6	4
0	56688	31.65	3
0	56689	31.65	4
0	56690	31.65	2
0	56691	31.65	3
0	56692	31.65	4
0	56733	31.7	3
0	56734	31.7	4
0	56735	31.7	2
0	56736	31.7	3
0	56737	31.7	4
0	56739	31.7	3
0	56740	31.7	4
0	56741	31.7	2
0	56742	31.7	3
0	56743	31.7	4
0	56822	31.75	3
0	56823	31.75	4
0	56824	31.75	2
0	56825	31.75	3
0	56826	31.75	4
0	56890	31.8	3
0	56891	31.8	4
0	56892	31.8	2
0	56893	31.8	3
0	56894	31.8	4
0	56896	31.8	3
0	56897	31.8	4
0	56898	31.8	2
0	56899	31.8	3
0	56900	31.8	4
0	56974	31.85	3
0	56975	31.85	4
0	56976	31.85	2
0	56977	31.85	3
0	56978	31.85	4
0	57024	31.9	3
0	57025	31.9	4
0	57026	31.9	2
0	57027	31.9	3
0	57028	31.9	4
0	57030	31.9	3
0	57031	31.9	4
0	57032	31.9	2
0	57033	31.9	3
0	57034	31.9	4
0	57190	31.95	3
0	57191	31.95	4
0	57192	31.95	2
0	57193	31.95	3
0	57194	31.95	4
0	57314	32	3
0	57315	32	4
0	57316	32	2
0	57317	32	3
0	57318	32	4
0	57320	32	3
0	57321	32	4
0	57322	32	2
0	57323	32	3
0	57324	32	4
0	57375	32.05	3
0	57376	32.05	4
0	57377	32.05	2
0	57378	32.05	3
0	57379	32.05	4
0	57425	32.1	3
0	57426	32.1	4
0	57427	32.1	2
0	57428	32.1	3
0	57429	32.1	4
0	57431	32.1	3
0	57432	32.1	4
0	57433	32.1	2
0	57434	32.1	3
0	57435	32.1	4
0	57509	32.15	3
0	57510	32.15	4
0	57511	32.15	2
0	57512	32.15	3
0	57513	32.15	4
0	57554	32.2	3
0	57555	32.2	4
0	57556	32.2	2
0	57557	32.2	3
0	57558	32.2	4
0	57560	32.2	3
0	57561	32.2	4
0	57562	32.2	2
0	57563	32.2	3
0	57564	32.2	4
0	57615	32.25	3
0	57616	32.25	4
0	57617	32.25	2
0	57618	32.25	3
0	57619	32.25	4
0	57677	32.3	3
0	57678	32.3	4
0	57679	32.3	2
0	57680	32.3	3
0	57681	32.3	4
0	57683	32.3	3
0	57684	32.3	4
0	57685	32.3	2
0	57686	32.3	3
0	57687	32.3	4
0	57761	32.35	3
0	57762	32.35	4
0	57763	32.35	2
0	57764	32.35	3
0	57765	32.35	4
0	57829	32.4	3
0	57830	32.4	4
0	57831	32.4	2
0	57832	32.4	3
0	57833	32.4	4
0	57835	32.4	3
0	57836	32.4	4
0	57837	32.4	2
0	57838	32.4	3
0	57839	32.4	4
0	57890	32.45	3
0	57891	32.45	4
0	57892	32.45	2
0	57893	32.45	3
0	57894	32.45	4
0	58001	32.5	3
0	58002	32.5	4
0	58003	32.5	2
0	58004	32.5	3
0	58005	32.5	4
0	58007	32.5	3
0	58008	32.5	4
0	58009	32.5	2
0	58010	32.5	3
0	58011	32.5	4
0	58105	32.55	3
0	58106	32.55	4
0	58107	32.55	2
0	58108	32.55	3
0	58109	32.55	4
0	58150	32.6	3
0	58151	32.6	4
0	58152	32.6	2
0	58153	32.6	3
0	58154	32.6	4
0	58156	32.6	3
0	58157	32.6	4
0	58158	32.6	2
0	58159	32.6	3
0	58160	32.6	4
0	58270	32.65	3
0	58271	32.65	4
0	58272	32.65	2
0	58273	32.65	3
0	58274	32.65	4
0	58359	32.7	3
0	58360	32.7	4
0	58361	32.7	2
0	58362	32.7	3
0	58363	32.7	4
0	58365	32.7	3
0	58366	32.7	4
0	58367	32.7	2
0	58368	32.7	3
0	58369	32.7	4
0	58420	32.75	3
0	58421	32.75	4
0	58422	32.75	2
0	58423	32.75	3
0	58424	32.75	4
0	58488	32.8	3
0	58489	32.8	4
0	58490	32.8	2
0	58491	32.8	3
0	58492	32.8	4
0	58494	32.8	3
0	58495	32.8	4
0	58496	32.8	2
0	58497	32.8	3
0	58498	32.8	4
0	58572	32.85	3
0	58573	32.85	4
0	58574	32.85	2
0	58575	32.85	3
0	58576	32.85	4
0	58640	32.9	3
0	58641	32.9	4
0	58642	32.9	2
0	58643	32.9	3
0	58644	32.9	4
0	58646	32.9	3
0	58647	32.9	4
0	58648	32.9	2
0	58649	32.9	3
0	58650	32.9	4
0	58747	32.95	3
0	58748	32.95	4
0	58749	32.95	2
0	58750	32.95	3
0	58751	32.95	4
0	58817	33	3
0	58818	33	4
0	58819	33	2
0	58820	33	3
0	58821	33	4
0	58823	33	3
0	58824	33	4
0	58825	33	2
0	58826	33	3
0	58827	33	4
0	58906	33.05	3
0	58907	33.05	4
0	58908	33.05	2
0	58909	33.05	3
0	58910	33.05	4
0	58973	33.1	3
0	58974	33.1	4
0	58975	33.1	2
0	58976	33.1	3
0	58977	33.1	4
0	58979	33.1	3
0	58980	33.1	4
0	58981	33.1	2
0	58982	33.1	3
0	58983	33.1	4
0	59105	33.15	3
0	59106	33.15	4
0	59107	33.15	2
0	59108	33.15	3
0	59109	33.15	4
0	59201	33.2	3
0	59202	33.2	4
0	59203	33.2	2
0	59204	33.2	3
0	59205	33.2	4
0	59207	33.2	3
0	59208	33.2	4
0	59209	33.2	2
0	59210	33.2	3
0	59211	33.2	4
0	59325	33.25	3
0	59326	33.25	4
0	59327	33.25	2
0	59328	33.25	3
0	59329	33.25	4
0	59370	33.3	3
0	59371	33.3	4
0	59372	33.3	2
0	59373	33.3	3
0	59374	33.3	4
0	59376	33.3	3
0	59377	33.3	4
0	59378	33.3	2
0	59379	33.3	3
0	59380	33.3	4
0	59477	33.35	3
0	59478	33.35	4
0	59479	33.35	2
0	59480	33.35	3
0	59481	33.35	4
0	59568	33.4	3
0	59569	33.4	4
0	59570	33.4	2
0	59571	33.4	3
0	59572	33.4	4
0	59574	33.4	3
0	59575	33.4	4
0	59576	33.4	2
0	59577	33.4	3
0	59578	33.4	4
0	59646	33.45	3
0	59647	33.45	4
0	59648	33.45	2
0	59649	33.45	3
0	59650	33.45	4
0	59754	33.5	3
0	59755	33.5	4
0	59756	33.5	2
0	59757	33.5	3
0	59758	33.5	4
0	59760	33.5	3
0	59761	33.5	4
0	59762	33.5	2
0	59763	33.5	3
0	59764	33.5	4
0	59820	33.55	3
0	59821	33.55	4
0	59822	33.55	2
0	59823	33.55	3
0	59824	33.55	4
0	59870	33.6	3
0	59871	33.6	4
0	59872	33.6	2
0	59873	33.6	3
0	59874	33.6	4
0	59876	33.6	3
0	59877	33.6	4
0	59878	33.6	2
0	59879	33.6	3
0	59880	33.6	4
0	59974	33.65	3
0	59975	33.65	4
0	59976	33.65	2
0	59977	33.65	3
0	59978	33.65	4
0	60019	33.7	3
0	60020	33.7	4
0	60021	33.7	2
0	60022	33.7	3
0	60023	33.7	4
0	60025	33.7	3
0	60026	33.7	4
0	60027	33.7	2
0	60028	33.7	3
0	60029	33.7	4
0	60103	33.75	3
0	60104	33.75	4
0	60105	33.75	2
0	60106	33.75	3
0	60107	33.75	4
0	60153	33.8	3
0	60154	33.8	4
0	60155	33.8	2
0	60156	33.8	3
0	60157	33.8	4
0	60159	33.8	3
0	60160	33.8	4
0	60161	33.8	2
0	60162	33.8	3
0	60163	33.8	4
0	60214	33.85	3
0	60215	33.85	4
0	60216	33.85	2
0	60217	33.85	3
0	60218	33.85	4
0	60287	33.9	3
0	60288	33.9	4
0	60289	33.9	2
0	60290	33.9	3
0	60291	33.9	4
0	60293	33.9	3
0	60294	33.9	4
0	60295	33.9	2
0	60296	33.9	3
0	60297	33.9	4
0	60371	33.95	3
0	60372	33.95	4
0	60373	33.95	2
0	60374	33.95	3
0	60375	33.95	4
0	60420	34	3
0	60421	34	4
0	60422	34	2
0	60423	34	3
0	60424	34	4
0	60426	34	3
0	60427	34	4
0	60428	34	2
0	60429	34	3
0	60430	34	4
0	60527	34.05	3
0	60528	34.05	4
0	60529	34.05	2
0	60530	34.05	3
0	60531	34.05	4
0	60577	34.1	3
0	60578	34.1	4
0	60579	34.1	2
0	60580	34.1	3
0	60581	34.1	4
0	60583	34.1	3
0	60584	34.1	4
0	60585	34.1	2
0	60586	34.1	3
0	60587	34.1	4
0	60644	34.15	3
0	60645	34.15	4
0	60646	34.15	2
0	60647	34.15	3
0	60648	34.15	4
0	60732	34.2	3
0	60733	34.2	4
0	60734	34.2	2
0	60735	34.2	3
0	60736	34.2	4
0	60738	34.2	3
0	60739	34.2	4
0	60740	34.2	2
0	60741	34.2	3
0	60742	34.2	4
0	60810	34.25	3
0	60811	34.25	4
0	60812	34.25	2
0	60813	34.25	3
0	60814	34.25	4
0	60878	34.3	3
0	60879	34.3	4
0	60880	34.3	2
0	60881	34.3	3
0	60882	34.3	4
0	60884	34.3	3
0	60885	34.3	4
0	60886	34.3	2
0	60887	34.3	3
0	60888	34.3	4
0	60939	34.35	3
0	60940	34.35	4
0	60941	34.35	2
0	60942	34.35	3
0	60943	34.35	4
0	61007	34.4	3
0	61008	34.4	4
0	61009	34.4	2
0	61010	34.4	3
0	61011	34.4	4
0	61013	34.4	3
0	61014	34.4	4
0	61015	34.4	2
0	61016	34.4	3
0	61017	34.4	4
0	61091	34.45	3
0	61092	34.45	4
0	61093	34.45	2
0	61094	34.45	3
0	61095	34.45	4
0	61159	34.5	3
0	61160	34.5	4
0	61161	34.5	2
0	61162	34.5	3
0	61163	34.5	4
0	61165	34.5	3
0	61166	34.5	4
0	61167	34.5	2
0	61168	34.5	3
0	61169	34.5	4
0	61220	34.55	3
0	61221	34.55	4
0	61222	34.55	2
0	61223	34.55	3
0	61224	34.55	4
0	61305	34.6	3
0	61306	34.6	4
0	61307	34.6	2
0	61308	34.6	3
0	61309	34.6	4
0	61311	34.6	3
0	61312	34.6	4
0	61313	34.6	2
0	61314	34.6	3
0	61315	34.6	4
0	61366	34.65	3
0	61367	34.65	4
0	61368	34.65	2
0	61369	34.65	3
0	61370	34.65	4
0	61411	34.7	3
0	61412	34.7	4
0	61413	34.7	2
0	61414	34.7	3
[...]
0	274635	192.3	0
0	274636	192.3	3
0	274637	192.3	3
0	274638	192.3	3
0	274639	192.3	3
0	274640	192.3	0
0	274641	192.3	3
0	274642	192.3	3
0	274710	192.35	3
0	274711	192.35	3
0	274712	192.35	0
0	274713	192.35	3
0	274714	192.35	3
0	274751	192.4	3
0	274752	192.4	3
0	274753	192.4	0
0	274754	192.4	3
0	274755	192.4	3
0	274756	192.4	3
0	274757	192.4	3
0	274758	192.4	0
0	274759	192.4	3
0	274760	192.4	3
0	274805	192.45	3
0	274806	192.45	3
0	274807	192.45	0
0	274808	192.45	3
0	274809	192.45	3
0	274869	192.5	3
0	274870	192.5	3
0	274871	192.5	0
0	274872	192.5	3
0	274873	192.5	3
0	274874	192.5	3
0	274875	192.5	3
0	274876	192.5	0
0	274877	192.5	3
0	274878	192.5	3
0	274923	192.55	3
0	274924	192.55	3
0	274925	192.55	0
0	274926	192.55	3
0	274927	192.55	3
0	275027	192.6	3
0	275028	192.6	3
0	275029	192.6	0
0	275030	192.6	3
0	275031	192.6	3
0	275032	192.6	3
0	275033	192.6	3
0	275034	192.6	0
0	275035	192.6	3
0	275036	192.6	3
0	275104	192.65	3
0	275105	192.65	3
0	275106	192.65	0
0	275107	192.65	3
0	275108	192.65	3
0	275145	192.7	3
0	275146	192.7	3
0	275147	192.7	0
0	275148	192.7	3
0	275149	192.7	3
0	275150	192.7	3
0	275151	192.7	3
0	275152	192.7	0
0	275153	192.7	3
0	275154	192.7	3
0	275268	192.75	3
0	275269	192.75	3
0	275270	192.75	0
0	275271	192.75	3
0	275272	192.75	3
0	275355	192.8	3
0	275356	192.8	3
0	275357	192.8	0
0	275358	192.8	3
0	275359	192.8	3
0	275360	192.8	3
0	275361	192.8	3
0	275362	192.8	0
0	275363	192.8	3
0	275364	192.8	3
0	275409	192.85	3
0	275410	192.85	3
0	275411	192.85	0
0	275412	192.85	3
0	275413	192.85	3
0	275473	192.9	3
0	275474	192.9	3
0	275475	192.9	0
0	275476	192.9	3
0	275477	192.9	3
0	275478	192.9	3
0	275479	192.9	3
0	275480	192.9	0
0	275481	192.9	3
0	275482	192.9	3
0	275550	192.95	3
0	275551	192.95	3
0	275552	192.95	0
0	275553	192.95	3
0	275554	192.95	3
0	275594	193	3
0	275595	193	3
0	275596	193	0
0	275597	193	3
0	275598	193	3
0	275599	193	3
0	275600	193	3
0	275601	193	0
0	275602	193	3
0	275603	193	3
0	275671	193.05	3
0	275672	193.05	3
0	275673	193.05	0
0	275674	193.05	3
0	275675	193.05	3
0	275712	193.1	3
0	275713	193.1	3
0	275714	193.1	0
0	275715	193.1	3
0	275716	193.1	3
0	275717	193.1	3
0	275718	193.1	3
0	275719	193.1	0
0	275720	193.1	3
0	275721	193.1	3
0	275835	193.15	3
0	275836	193.15	3
0	275837	193.15	0
0	275838	193.15	3
0	275839	193.15	3
0	275899	193.2	3
0	275900	193.2	3
0	275901	193.2	0
0	275902	193.2	3
0	275903	193.2	3
0	275904	193.2	3
0	275905	193.2	3
0	275906	193.2	0
0	275907	193.2	3
0	275908	193.2	3
0	275953	193.25	3
0	275954	193.25	3
0	275955	193.25	0
0	275956	193.25	3
0	275957	193.25	3
0	276045	193.3	3
0	276046	193.3	3
0	276047	193.3	0
0	276048	193.3	3
0	276049	193.3	3
0	276050	193.3	3
0	276051	193.3	3
0	276052	193.3	0
0	276053	193.3	3
0	276054	193.3	3
0	276145	193.35	3
0	276146	193.35	3
0	276147	193.35	0
0	276148	193.35	3
0	276149	193.35	3
0	276186	193.4	3
0	276187	193.4	3
0	276188	193.4	0
0	276189	193.4	3
0	276190	193.4	3
0	276191	193.4	3
0	276192	193.4	3
0	276193	193.4	0
0	276194	193.4	3
0	276195	193.4	3
0	276263	193.45	3
0	276264	193.45	3
0	276265	193.45	0
0	276266	193.45	3
0	276267	193.45	3
0	276309	193.5	3
0	276310	193.5	3
0	276311	193.5	0
0	276312	193.5	3
0	276313	193.5	3
0	276314	193.5	3
0	276315	193.5	3
0	276316	193.5	0
0	276317	193.5	3
0	276318	193.5	3
0	276363	193.55	3
0	276364	193.55	3
0	276365	193.55	0
0	276366	193.55	3
0	276367	193.55	3
0	276427	193.6	3
0	276428	193.6	3
0	276429	193.6	0
0	276430	193.6	3
0	276431	193.6	3
0	276432	193.6	3
0	276433	193.6	3
0	276434	193.6	0
0	276435	193.6	3
0	276436	193.6	3
0	276481	193.65	3
0	276482	193.65	3
0	276483	193.65	0
0	276484	193.65	3
0	276485	193.65	3
0	276562	193.7	3
0	276563	193.7	3
0	276564	193.7	0
0	276565	193.7	3
0	276566	193.7	3
0	276567	193.7	3
0	276568	193.7	3
0	276569	193.7	0
0	276570	193.7	3
0	276571	193.7	3
0	276639	193.75	3
0	276640	193.75	3
0	276641	193.75	0
0	276642	193.75	3
0	276643	193.75	3
0	276680	193.8	3
0	276681	193.8	3
0	276682	193.8	0
0	276683	193.8	3
0	276684	193.8	3
0	276685	193.8	3
0	276686	193.8	3
0	276687	193.8	0
0	276688	193.8	3
0	276689	193.8	3
0	276762	193.85	3
0	276763	193.85	3
0	276764	193.85	0
0	276765	193.85	3
0	276766	193.85	3
0	276826	193.9	3
0	276827	193.9	3
0	276828	193.9	0
0	276829	193.9	3
0	276830	193.9	3
0	276831	193.9	3
0	276832	193.9	3
0	276833	193.9	0
0	276834	193.9	3
0	276835	193.9	3
0	276880	193.95	3
0	276881	193.95	3
0	276882	193.95	0
0	276883	193.95	3
0	276884	193.95	3
0	276945	194	3
0	276946	194	3
0	276947	194	0
0	276948	194	3
0	276949	194	3
0	276950	194	3
0	276951	194	3
0	276952	194	0
0	276953	194	3
0	276954	194	3
0	276999	194.05	3
0	277000	194.05	3
0	277001	194.05	0
0	277002	194.05	3
0	277003	194.05	3
0	277040	194.1	3
0	277041	194.1	3
0	277042	194.1	0
0	277043	194.1	3
0	277044	194.1	3
0	277045	194.1	3
0	277046	194.1	3
0	277047	194.1	0
0	277048	194.1	3
0	277049	194.1	3
0	277117	194.15	3
0	277118	194.15	3
0	277119	194.15	0
0	277120	194.15	3
0	277121	194.15	3
0	277158	194.2	3
0	277159	194.2	3
0	277160	194.2	0
0	277161	194.2	3
0	277162	194.2	3
0	277163	194.2	3
0	277164	194.2	3
0	277165	194.2	0
0	277166	194.2	3
0	277167	194.2	3
0	277235	194.25	3
0	277236	194.25	3
0	277237	194.25	0
0	277238	194.25	3
0	277239	194.25	3
0	277299	194.3	3
0	277300	194.3	3
0	277301	194.3	0
0	277302	194.3	3
0	277303	194.3	3
0	277304	194.3	3
0	277305	194.3	3
0	277306	194.3	0
0	277307	194.3	3
0	277308	194.3	3
0	277353	194.35	3
0	277354	194.35	3
0	277355	194.35	0
0	277356	194.35	3
0	277357	194.35	3
0	277417	194.4	3
0	277418	194.4	3
0	277419	194.4	0
0	277420	194.4	3
0	277421	194.4	3
0	277422	194.4	3
0	277423	194.4	3
0	277424	194.4	0
0	277425	194.4	3
0	277426	194.4	3
0	277494	194.45	3
0	277495	194.45	3
0	277496	194.45	0
0	277497	194.45	3
0	277498	194.45	3
0	277535	194.5	3
0	277536	194.5	3
0	277537	194.5	0
0	277538	194.5	3
0	277539	194.5	3
0	277540	194.5	3
0	277541	194.5	3
0	277542	194.5	0
0	277543	194.5	3
0	277544	194.5	3
0	277612	194.55	3
0	277613	194.55	3
0	277614	194.55	0
0	277615	194.55	3
0	277616	194.55	3
0	277653	194.6	3
0	277654	194.6	3
0	277655	194.6	0
0	277656	194.6	3
0	277657	194.6	3
0	277658	194.6	3
0	277659	194.6	3
0	277660	194.6	0
0	277661	194.6	3
0	277662	194.6	3
0	277707	194.65	3
0	277708	194.65	3
0	277709	194.65	0
0	277710	194.65	3
0	277711	194.65	3
0	277771	194.7	3
0	277772	194.7	3
0	277773	194.7	0
0	277774	194.7	3
0	277775	194.7	3
0	277776	194.7	3
0	277777	194.7	3
0	277778	194.7	0
0	277779	194.7	3
0	277780	194.7	3
0	277830	194.75	3
0	277831	194.75	3
0	277832	194.75	0
0	277833	194.75	3
0	277834	194.75	3
0	277894	194.8	3
0	277895	194.8	3
0	277896	194.8	0
0	277897	194.8	3
0	277898	194.8	3
0	277899	194.8	3
0	277900	194.8	3
0	277901	194.8	0
0	277902	194.8	3
0	277903	194.8	3
0	277971	194.85	3
0	277972	194.85	3
0	277973	194.85	0
0	277974	194.85	3
0	277975	194.85	3
0	278017	194.9	3
0	278018	194.9	3
0	278019	194.9	0
0	278020	194.9	3
0	278021	194.9	3
0	278022	194.9	3
0	278023	194.9	3
0	278024	194.9	0
0	278025	194.9	3
0	278026	194.9	3
0	278111	194.95	3
0	278112	194.95	3
0	278113	194.95	0
0	278114	194.95	3
0	278115	194.95	3
0	278176	195	3
0	278177	195	3
0	278178	195	0
0	278179	195	3
0	278180	195	3
0	278181	195	3
0	278182	195	3
0	278183	195	0
0	278184	195	3
0	278185	195	3
0	278230	195.05	3
0	278231	195.05	3
0	278232	195.05	0
0	278233	195.05	3
0	278234	195.05	3
0	278311	195.1	3
0	278312	195.1	3
0	278313	195.1	0
0	278314	195.1	3
0	278315	195.1	3
0	278316	195.1	3
0	278317	195.1	3
0	278318	195.1	0
0	278319	195.1	3
0	278320	195.1	3
0	278365	195.15	3
0	278366	195.15	3
0	278367	195.15	0
0	278368	195.15	3
0	278369	195.15	3
0	278406	195.2	3
0	278407	195.2	3
0	278408	195.2	0
0	278409	195.2	3
0	278410	195.2	3
0	278411	195.2	3
0	278412	195.2	3
0	278413	195.2	0
0	278414	195.2	3
0	278415	195.2	3
0	278483	195.25	3
0	278484	195.25	3
0	278485	195.25	0
0	278486	195.25	3
0	278487	195.25	3
0	278547	195.3	3
0	278548	195.3	3
0	278549	195.3	0
0	278550	195.3	3
0	278551	195.3	3
0	278552	195.3	3
0	278553	195.3	3
0	278554	195.3	0
0	278555	195.3	3
0	278556	195.3	3
0	278624	195.35	3
0	278625	195.35	3
0	278626	195.35	0
0	278627	195.35	3
0	278628	195.35	3
0	278670	195.4	3
0	278671	195.4	3
0	278672	195.4	0
0	278673	195.4	3
0	278674	195.4	3
0	278675	195.4	3
0	278676	195.4	3
0	278677	195.4	0
0	278678	195.4	3
0	278679	195.4	3
0	278747	195.45	3
0	278748	195.45	3
0	278749	195.45	0
0	278750	195.45	3
0	278751	195.45	3
0	278816	195.5	3
0	278817	195.5	3
0	278818	195.5	0
0	278819	195.5	3
0	278820	195.5	3
0	278821	195.5	3
0	278822	195.5	3
0	278823	195.5	0
0	278824	195.5	3
0	278825	195.5	3
0	278870	195.55	3
0	278871	195.55	3
0	278872	195.55	0
0	278873	195.55	3
0	278874	195.55	3
0	278911	195.6	3
0	278912	195.6	3
0	278913	195.6	0
0	278914	195.6	3
0	278915	195.6	3
0	278916	195.6	3
0	278917	195.6	3
0	278918	195.6	0
0	278919	195.6	3
0	278920	195.6	3
0	278988	195.65	3
0	278989	195.65	3
0	278990	195.65	0
0	278991	195.65	3
0	278992	195.65	3
0	279029	195.7	3
0	279030	195.7	3
0	279031	195.7	0
0	279032	195.7	3
0	279033	195.7	3
0	279034	195.7	3
0	279035	195.7	3
0	279036	195.7	0
0	279037	195.7	3
0	279038	195.7	3
0	279083	195.75	3
0	279084	195.75	3
0	279085	195.75	0
0	279086	195.75	3
0	279087	195.75	3
0	279147	195.8	3
0	279148	195.8	3
0	279149	195.8	0
0	279150	195.8	3
0	279151	195.8	3
0	279152	195.8	3
0	279153	195.8	3
0	279154	195.8	0
0	279155	195.8	3
0	279156	195.8	3
0	279224	195.85	3
0	279225	195.85	3
0	279226	195.85	0
0	279227	195.85	3
0	279228	195.85	3
0	279288	195.9	3
0	279289	195.9	3
0	279290	195.9	0
0	279291	195.9	3
0	279292	195.9	3
0	279293	195.9	3
0	279294	195.9	3
0	279295	195.9	0
0	279296	195.9	3
0	279297	195.9	3
0	279342	195.95	3
0	279343	195.95	3
0	279344	195.95	0
0	279345	195.95	3
0	279346	195.95	3
0	279406	196	3
0	279407	196	3
0	279408	196	0
0	279409	196	3
0	279410	196	3
0	279411	196	3
0	279412	196	3
0	279413	196	0
0	279414	196	3
0	279415	196	3
0	279483	196.05	3
0	279484	196.05	3
0	279485	196.05	0
0	279486	196.05	3
0	279487	196.05	3
0	279524	196.1	3
0	279525	196.1	3
0	279526	196.1	0
0	279527	196.1	3
0	279528	196.1	3
0	279529	196.1	3
0	279530	196.1	3
0	279531	196.1	0
0	279532	196.1	3
0	279533	196.1	3
0	279578	196.15	3
0	279579	196.15	3
0	279580	196.15	0
0	279581	196.15	3
0	279582	196.15	3
0	279642	196.2	3
0	279643	196.2	3
0	279644	196.2	0
0	279645	196.2	3
0	279646	196.2	3
0	279647	196.2	3
0	279648	196.2	3
0	279649	196.2	0
0	279650	196.2	3
0	279651	196.2	3
0	279696	196.25	3
0	279697	196.25	3
0	279698	196.25	0
0	279699	196.25	3
0	279700	196.25	3
0	279737	196.3	3
0	279738	196.3	3
0	279739	196.3	0
0	279740	196.3	3
0	279741	196.3	3
0	279742	196.3	3
0	279743	196.3	3
0	279744	196.3	0
0	279745	196.3	3
0	279746	196.3	3
0	279837	196.35	3
0	279838	196.35	3
0	279839	196.35	0
0	279840	196.35	3
0	279841	196.35	3
0	279901	196.4	3
0	279902	196.4	3
0	279903	196.4	0
0	279904	196.4	3
0	279905	196.4	3
0	279906	196.4	3
0	279907	196.4	3
0	279908	196.4	0
0	279909	196.4	3
0	279910	196.4	3
0	279978	196.45	3
0	279979	196.45	3
0	279980	196.45	0
0	279981	196.45	3
0	279982	196.45	3
0	280036	196.5	3
0	280037	196.5	3
0	280038	196.5	0
0	280039	196.5	3
0	280040	196.5	3
0	280041	196.5	3
0	280042	196.5	3
0	280043	196.5	0
0	280044	196.5	3
0	280045	196.5	3
0	280107	196.55	3
0	280108	196.55	3
0	280109	196.55	0
0	280110	196.55	3
0	280111	196.55	3
0	280176	196.6	3
0	280177	196.6	3
0	280178	196.6	0
0	280179	196.6	3
0	280180	196.6	3
0	280181	196.6	3
0	280182	196.6	3
0	280183	196.6	0
0	280184	196.6	3
0	280185	196.6	3
0	280230	196.65	3
0	280231	196.65	3
0	280232	196.65	0
0	280233	196.65	3
0	280234	196.65	3
0	280294	196.7	3
0	280295	196.7	3
0	280296	196.7	0
0	280297	196.7	3
0	280298	196.7	3
0	280299	196.7	3
0	280300	196.7	3
0	280301	196.7	0
0	280302	196.7	3
0	280303	196.7	3
0	280376	196.75	3
0	280377	196.75	3
0	280378	196.75	0
0	280379	196.75	3
0	280380	196.75	3
0	280417	196.8	3
0	280418	196.8	3
0	280419	196.8	0
0	280420	196.8	3
0	280421	196.8	3
0	280422	196.8	3
0	280423	196.8	3
0	280424	196.8	0
0	280425	196.8	3
0	280426	196.8	3
0	280476	196.85	3
0	280477	196.85	3
0	280478	196.85	0
0	280479	196.85	3
0	280480	196.85	3
0	280563	196.9	3
0	280564	196.9	3
0	280565	196.9	0
0	280566	196.9	3
0	280567	196.9	3
0	280568	196.9	3
0	280569	196.9	3
0	280570	196.9	0
0	280571	196.9	3
0	280572	196.9	3
0	280640	196.95	3
0	280641	196.95	3
0	280642	196.95	0
0	280643	196.95	3
0	280644	196.95	3
0	280681	197	3
0	280682	197	3
0	280683	197	0
0	280684	197	3
0	280685	197	3
0	280686	197	3
0	280687	197	3
0	280688	197	0
0	280689	197	3
0	280690	197	3
0	280752	197.05	3
0	280753	197.05	3
0	280754	197.05	0
0	280755	197.05	3
0	280756	197.05	3
0	280816	197.1	3
0	280817	197.1	3
0	280818	197.1	0
0	280819	197.1	3
0	280820	197.1	3
0	280821	197.1	3
0	280822	197.1	3
0	280823	197.1	0
0	280824	197.1	3
0	280825	197.1	3
0	280870	197.15	3
0	280871	197.15	3
0	280872	197.15	0
0	280873	197.15	3
0	280874	197.15	3
0	280911	197.2	3
0	280912	197.2	3
0	280913	197.2	0
0	280914	197.2	3
0	280915	197.2	3
0	280916	197.2	3
0	280917	197.2	3
0	280918	197.2	0
0	280919	197.2	3
0	280920	197.2	3
0	280965	197.25	3
0	280966	197.25	3
0	280967	197.25	0
0	280968	197.25	3
0	280969	197.25	3
0	281029	197.3	3
0	281030	197.3	3
0	281031	197.3	0
0	281032	197.3	3
0	281033	197.3	3
0	281034	197.3	3
0	281035	197.3	3
0	281036	197.3	0
0	281037	197.3	3
0	281038	197.3	3
0	281083	197.35	3
0	281084	197.35	3
0	281085	197.35	0
0	281086	197.35	3
0	281087	197.35	3
0	281124	197.4	3
0	281125	197.4	3
0	281126	197.4	0
0	281127	197.4	3
0	281128	197.4	3
0	281129	197.4	3
0	281130	197.4	3
0	281131	197.4	0
0	281132	197.4	3
0	281133	197.4	3
0	281206	197.45	3
0	281207	197.45	3
0	281208	197.45	0
0	281209	197.45	3
0	281210	197.45	3
0	281270	197.5	3
0	281271	197.5	3
0	281272	197.5	0
0	281273	197.5	3
0	281274	197.5	3
0	281275	197.5	3
0	281276	197.5	3
0	281277	197.5	0
0	281278	197.5	3
0	281279	197.5	3
0	281324	197.55	3
0	281325	197.55	3
0	281326	197.55	0
0	281327	197.55	3
0	281328	197.55	3
0	281365	197.6	3
0	281366	197.6	3
0	281367	197.6	0
0	281368	197.6	3
0	281369	197.6	3
0	281370	197.6	3
0	281371	197.6	3
0	281372	197.6	0
0	281373	197.6	3
0	281374	197.6	3
0	281442	197.65	3
0	281443	197.65	3
0	281444	197.65	0
0	281445	197.65	3
0	281446	197.65	3
0	281483	197.7	3
0	281484	197.7	3
0	281485	197.7	0
0	281486	197.7	3
0	281487	197.7	3
0	281488	197.7	3
0	281489	197.7	3
0	281490	197.7	0
0	281491	197.7	3
0	281492	197.7	3
0	281537	197.75	3
0	281538	197.75	3
0	281539	197.75	0
0	281540	197.75	3
0	281541	197.75	3
0	281578	197.8	3
0	281579	197.8	3
0	281580	197.8	0
0	281581	197.8	3
0	281582	197.8	3
0	281583	197.8	3
0	281584	197.8	3
0	281585	197.8	0
0	281586	197.8	3
0	281587	197.8	3
0	281655	197.85	3
0	281656	197.85	3
0	281657	197.85	0
0	281658	197.85	3
0	281659	197.85	3
0	281696	197.9	3
0	281697	197.9	3
0	281698	197.9	0
0	281699	197.9	3
0	281700	197.9	3
0	281701	197.9	3
0	281702	197.9	3
0	281703	197.9	0
0	281704	197.9	3
0	281705	197.9	3
0	281750	197.95	3
0	281751	197.95	3
0	281752	197.95	0
0	281753	197.95	3
0	281754	197.95	3
0	281817	198	3
0	281818	198	3
0	281819	198	0
0	281820	198	3
0	281821	198	3
0	281822	198	3
0	281823	198	3
0	281824	198	0
0	281825	198	3
0	281826	198	3
0	281917	198.05	3
0	281918	198.05	3
0	281919	198.05	0
0	281920	198.05	3
0	281921	198.05	3
0	281958	198.1	3
0	281959	198.1	3
0	281960	198.1	0
0	281961	198.1	3
0	281962	198.1	3
0	281963	198.1	3
0	281964	198.1	3
0	281965	198.1	0
0	281966	198.1	3
0	281967	198.1	3
0	282012	198.15	3
0	282013	198.15	3
0	282014	198.15	0
0	282015	198.15	3
0	282016	198.15	3
0	282122	198.2	3
0	282123	198.2	3
0	282124	198.2	0
0	282125	198.2	3
0	282126	198.2	3
0	282127	198.2	3
0	282128	198.2	3
0	282129	198.2	0
0	282130	198.2	3
0	282131	198.2	3
0	282176	198.25	3
0	282177	198.25	3
0	282178	198.25	0
0	282179	198.25	3
0	282180	198.25	3
0	282240	198.3	3
0	282241	198.3	3
0	282242	198.3	0
0	282243	198.3	3
0	282244	198.3	3
0	282245	198.3	3
0	282246	198.3	3
0	282247	198.3	0
0	282248	198.3	3
0	282249	198.3	3
0	282317	198.35	3
0	282318	198.35	3
0	282319	198.35	0
0	282320	198.35	3
0	282321	198.35	3
0	282381	198.4	3
0	282382	198.4	3
0	282383	198.4	0
0	282384	198.4	3
0	282385	198.4	3
0	282386	198.4	3
0	282387	198.4	3
0	282388	198.4	0
0	282389	198.4	3
0	282390	198.4	3
0	282440	198.45	3
0	282441	198.45	3
0	282442	198.45	0
0	282443	198.45	3
0	282444	198.45	3
0	282481	198.5	3
0	282482	198.5	3
0	282483	198.5	0
0	282484	198.5	3
0	282485	198.5	3
0	282486	198.5	3
0	282487	198.5	3
0	282488	198.5	0
0	282489	198.5	3
0	282490	198.5	3
0	282558	198.55	3
0	282559	198.55	3
0	282560	198.55	0
0	282561	198.55	3
0	282562	198.55	3
0	282645	198.6	3
0	282646	198.6	3
0	282647	198.6	0
0	282648	198.6	3
0	282649	198.6	3
0	282650	198.6	3
0	282651	198.6	3
0	282652	198.6	0
0	282653	198.6	3
0	282654	198.6	3
0	282716	198.65	3
0	282717	198.65	3
0	282718	198.65	0
0	282719	198.65	3
0	282720	198.65	3
0	282757	198.7	3
0	282758	198.7	3
0	282759	198.7	0
0	282760	198.7	3
0	282761	198.7	3
0	282762	198.7	3
0	282763	198.7	3
0	282764	198.7	0
0	282765	198.7	3
0	282766	198.7	3
0	282880	198.75	3
0	282881	198.75	3
0	282882	198.75	0
0	282883	198.75	3
0	282884	198.75	3
0	282944	198.8	3
0	282945	198.8	3
0	282946	198.8	0
0	282947	198.8	3
0	282948	198.8	3
0	282949	198.8	3
0	282950	198.8	3
0	282951	198.8	0
0	282952	198.8	3
0	282953	198.8	3
0	282998	198.85	3
0	282999	198.85	3
0	283000	198.85	0
0	283001	198.85	3
0	283002	198.85	3
0	283062	198.9	3
0	283063	198.9	3
0	283064	198.9	0
0	283065	198.9	3
0	283066	198.9	3
0	283067	198.9	3
0	283068	198.9	3
0	283069	198.9	0
0	283070	198.9	3
0	283071	198.9	3
0	283139	198.95	3
0	283140	198.95	3
0	283141	198.95	0
0	283142	198.95	3
0	283143	198.95	3
0	283181	199	3
0	283182	199	3
0	283183	199	0
0	283184	199	3
0	283185	199	3
0	283186	199	3
0	283187	199	3
0	283188	199	0
0	283189	199	3
0	283190	199	3
0	283235	199.05	3
0	283236	199.05	3
0	283237	199.05	0
0	283238	199.05	3
0	283239	199.05	3
0	283299	199.1	3
0	283300	199.1	3
0	283301	199.1	0
0	283302	199.1	3
0	283303	199.1	3
0	283304	199.1	3
0	283305	199.1	3
0	283306	199.1	0
0	283307	199.1	3
0	283308	199.1	3
0	283399	199.15	3
0	283400	199.15	3
0	283401	199.15	0
0	283402	199.15	3
0	283403	199.15	3
0	283445	199.2	3
0	283446	199.2	3
0	283447	199.2	0
0	283448	199.2	3
0	283449	199.2	3
0	283450	199.2	3
0	283451	199.2	3
0	283452	199.2	0
0	283453	199.2	3
0	283454	199.2	3
0	283499	199.25	3
0	283500	199.25	3
0	283501	199.25	0
0	283502	199.25	3
0	283503	199.25	3
0	283609	199.3	3
0	283610	199.3	3
0	283611	199.3	0
0	283612	199.3	3
0	283613	199.3	3
0	283614	199.3	3
0	283615	199.3	3
0	283616	199.3	0
0	283617	199.3	3
0	283618	199.3	3
0	283663	199.35	3
0	283664	199.35	3
0	283665	199.35	0
0	283666	199.35	3
0	283667	199.35	3
0	283704	199.4	3
0	283705	199.4	3
0	283706	199.4	0
0	283707	199.4	3
0	283708	199.4	3
0	283709	199.4	3
0	283710	199.4	3
0	283711	199.4	0
0	283712	199.4	3
0	283713	199.4	3
0	283781	199.45	3
0	283782	199.45	3
0	283783	199.45	0
0	283784	199.45	3
0	283785	199.45	3
0	283845	199.5	3
0	283846	199.5	3
0	283847	199.5	0
0	283848	199.5	3
0	283849	199.5	3
0	283850	199.5	3
0	283851	199.5	3
0	283852	199.5	0
0	283853	199.5	3
0	283854	199.5	3
0	283899	199.55	3
0	283900	199.55	3
0	283901	199.55	0
0	283902	199.55	3
0	283903	199.55	3
0	283940	199.6	3
0	283941	199.6	3
0	283942	199.6	0
0	283943	199.6	3
0	283944	199.6	3
0	283945	199.6	3
0	283946	199.6	3
0	283947	199.6	0
0	283948	199.6	3
0	283949	199.6	3
0	284017	199.65	3
0	284018	199.65	3
0	284019	199.65	0
0	284020	199.65	3
0	284021	199.65	3
0	284104	199.7	3
0	284105	199.7	3
0	284106	199.7	0
0	284107	199.7	3
0	284108	199.7	3
0	284109	199.7	3
0	284110	199.7	3
0	284111	199.7	0
0	284112	199.7	3
0	284113	199.7	3
0	284158	199.75	3
0	284159	199.75	3
0	284160	199.75	0
0	284161	199.75	3
0	284162	199.75	3
0	284199	199.8	3
0	284200	199.8	3
0	284201	199.8	0
0	284202	199.8	3
0	284203	199.8	3
0	284204	199.8	3
0	284205	199.8	3
0	284206	199.8	0
0	284207	199.8	3
0	284208	199.8	3
0	284322	199.85	3
0	284323	199.85	3
0	284324	199.85	0
0	284325	199.85	3
0	284326	199.85	3
0	284386	199.9	3
0	284387	199.9	3
0	284388	199.9	0
0	284389	199.9	3
0	284390	199.9	3
0	284391	199.9	3
0	284392	199.9	3
0	284393	199.9	0
0	284394	199.9	3
0	284395	199.9	3
0	284440	199.95	3
0	284441	199.95	3
0	284442	199.95	0
0	284443	199.95	3
0	284444	199.95	3
0	284505	200	3
0	284506	200	3
0	284507	200	0
0	284508	200	3
0	284509	200	3
0	284510	200	3
0	284511	200	3
0	284512	200	0
0	284513	200	3
0	284514	200	3

