version 2
run D-0-20190919-00:02:25-7072
attr configname D
attr datetime 20190919-00:02:25
attr experiment D
attr inifile SimV2.ini
attr iterationvars ""
attr iterationvarsf ""
attr measurement ""
attr network NetworkTormV2
attr processid 7072
attr repetition 0
attr replication #0
attr resultdir results
attr runnumber 0
attr seedset 0
param **.mobility.traceFile "\"paths/D.movements\""
param **.numNodes 3
param **.wirelessIfc.wirelessRange 40m
param **.bluetoothIfc.wirelessRange 40m
param **.application.usedRNG 1
param **.application.dataGenerationInterval 1s
param **.application.dataSizeInBytes 10
param **.application.ttl 999999s
param **application.destinationAddr "\"Wf:00:00:00:00:02\""
param **application.destinationBTAddr "\"Bt:00:00:00:00:02\""
param **application.nodesThatGen true
param **application.nodesGenMsg "\"0,1\""
param **application.startMultipleMsg false
param **application.numMultipleMsg 100
param **application.hopsListSize 50
param **.application.endGeneratingMsg 90s
param **.numNodes 2
param **.application.usedRNG 1
param **.application.dataGenerationInterval 1ms
param **.application.dataSizeInBytes 10
param **.application.ttl 999999s
param **application.destinationAddr "\"Wf:00:00:00:00:02\""
param **application.destinationBTAddr "\"Bt:00:00:00:00:02\""
param **application.nodesThatGen true
param **application.nodesGenMsg "\"0\""
param **application.startMultipleMsg true
param **application.numMultipleMsg 100
param **application.hopsListSize 50
param **.application.endGeneratingMsg 999999s
param **.routingLayer "\"RoutingLayer\""
param **.routing.maximumCacheSize 5000byte
param **.routing.maximumHopCount 25
param **.routing.useTTL false
param **.routing.waitBFsend 0.5
param **.routing.max_age 999999s
param **.neighboring.antiEntropyInterval 500ms
param **.neighboring.maximumRandomBackoffDuration 1s
param **.neighboring.delayPerDataMsg 0.1
param **neighboring.usedRNG 2
param **.neighboring.GWAddr "\"Wf:00:00:00:00:02\""
param **.neighboring.sendWifiFirst true
param **.neighboring.maxLengthGraph 20
param **.neighboring.max_age 999999s
param **.neighboring.max_absent_time 1s
param **.wirelessIfc.wirelessRange 15m
param **.wirelessIfc.neighbourScanInterval 50ms
param **.wirelessIfc.bandwidthBitRate 100000bps
param **.wirelessIfc.wirelessHeaderSize 32byte
param **.wirelessIfc.minSSI -90
param **.wirelessIfc.limitQueueTime 400ms
param **.bluetoothIfc.wirelessRange 15m
param **.bluetoothIfc.neighbourScanInterval 100ms
param **.bluetoothIfc.bandwidthBitRate 100000bps
param **.bluetoothIfc.wirelessHeaderSize 16byte
param **.bluetoothIfc.minSSI -90
param **.mobilityType "\"BonnMotionMobility\""
param **.mobility.traceFile "\"paths/Moves2.movements\""
param **.mobility.is3D false
param **.mobility.nodeId -1

vector 0 NetworkTormV2 neighbourhoodSize:vector ETV
attr source neighbourhoodSize
vector 1 NetworkTormV2 deliveryRatio:vector ETV
attr source sum(totalDataBytesReceived)/sum(totalDataBytesReceivableByAllNodes)
vector 2 NetworkTormV2 dataBytesReceivedSum:vector ETV
attr source sum(dataBytesReceived)
vector 3 NetworkTormV2 totalBytesReceivedSum:vector ETV
attr source sum(totalBytesReceived)
0	10	0.05	1
0	11	0.05	2
0	12	0.05	1
0	20	0.1	1
0	22	0.1	2
0	23	0.1	1
0	26	0.1	1
0	27	0.1	2
0	28	0.1	1
0	43	0.15	1
0	44	0.15	2
0	45	0.15	1
0	52	0.2	1
0	53	0.2	2
0	54	0.2	1
0	57	0.2	1
0	58	0.2	2
0	59	0.2	1
0	72	0.25	1
0	73	0.25	2
0	74	0.25	1
0	81	0.3	1
0	82	0.3	2
0	83	0.3	1
0	86	0.3	1
0	87	0.3	2
0	88	0.3	1
0	101	0.35	1
0	102	0.35	2
0	103	0.35	1
0	110	0.4	1
0	111	0.4	2
0	112	0.4	1
0	115	0.4	1
0	116	0.4	2
0	117	0.4	1
0	130	0.45	1
0	131	0.45	2
0	132	0.45	1
0	139	0.5	1
0	140	0.5	2
0	141	0.5	1
0	144	0.5	1
0	145	0.5	2
0	146	0.5	1
0	159	0.55	1
0	160	0.55	2
0	161	0.55	1
0	168	0.6	1
0	169	0.6	2
0	170	0.6	1
0	173	0.6	1
0	174	0.6	2
0	175	0.6	1
0	188	0.65	1
0	189	0.65	2
0	190	0.65	1
0	197	0.7	1
0	198	0.7	2
0	199	0.7	1
0	202	0.7	1
0	203	0.7	2
0	204	0.7	1
0	217	0.75	1
0	218	0.75	2
0	219	0.75	1
0	226	0.8	1
0	227	0.8	2
0	228	0.8	1
0	231	0.8	1
0	232	0.8	2
0	233	0.8	1
0	246	0.85	1
0	247	0.85	2
0	248	0.85	1
0	255	0.9	1
0	256	0.9	2
0	257	0.9	1
0	260	0.9	1
0	261	0.9	2
0	262	0.9	1
0	275	0.95	1
0	276	0.95	2
0	277	0.95	1
0	284	1	1
0	285	1	2
0	286	1	1
0	289	1	1
0	290	1	2
0	291	1	1
0	304	1.05	1
0	305	1.05	2
0	306	1.05	1
0	315	1.1	1
0	316	1.1	2
0	317	1.1	1
0	320	1.1	1
0	321	1.1	2
0	322	1.1	1
0	403	1.15	1
0	404	1.15	2
0	405	1.15	1
0	422	1.2	1
0	423	1.2	2
0	424	1.2	1
0	427	1.2	1
0	428	1.2	2
0	429	1.2	1
0	442	1.25	1
0	443	1.25	2
0	444	1.25	1
0	451	1.3	1
0	452	1.3	2
0	453	1.3	1
0	456	1.3	1
0	457	1.3	2
0	458	1.3	1
0	471	1.35	1
0	472	1.35	2
0	473	1.35	1
0	480	1.4	1
0	481	1.4	2
0	482	1.4	1
0	485	1.4	1
0	486	1.4	2
0	487	1.4	1
0	500	1.45	1
0	501	1.45	2
0	502	1.45	1
0	509	1.5	1
0	510	1.5	2
0	511	1.5	1
0	514	1.5	1
0	515	1.5	2
0	516	1.5	1
0	529	1.55	1
0	530	1.55	2
0	531	1.55	1
0	538	1.6	1
0	539	1.6	2
0	540	1.6	1
0	543	1.6	1
0	544	1.6	2
0	545	1.6	1
0	558	1.65	1
0	559	1.65	2
0	560	1.65	1
0	633	1.7	1
0	634	1.7	2
0	635	1.7	1
0	638	1.7	1
0	639	1.7	2
0	640	1.7	1
0	663	1.75	1
0	664	1.75	2
0	665	1.75	1
0	672	1.8	1
0	673	1.8	2
0	674	1.8	1
0	677	1.8	1
0	678	1.8	2
0	679	1.8	1
0	692	1.85	1
0	693	1.85	2
0	694	1.85	1
0	701	1.9	1
0	702	1.9	2
0	703	1.9	1
0	706	1.9	1
0	707	1.9	2
0	708	1.9	1
0	721	1.95	1
0	722	1.95	2
0	723	1.95	1
0	730	2	1
0	731	2	2
0	732	2	1
0	735	2	1
0	736	2	2
0	737	2	1
0	750	2.05	1
0	751	2.05	2
0	752	2.05	1
0	761	2.1	1
0	762	2.1	2
0	763	2.1	1
0	766	2.1	1
0	767	2.1	2
0	768	2.1	1
0	783	2.15	1
0	784	2.15	2
0	785	2.15	1
0	792	2.2	1
0	793	2.2	2
0	794	2.2	1
0	797	2.2	1
0	798	2.2	2
0	799	2.2	1
0	888	2.25	1
0	889	2.25	2
0	890	2.25	1
0	921	2.3	1
0	922	2.3	2
0	923	2.3	1
0	926	2.3	1
0	927	2.3	2
0	928	2.3	1
0	941	2.35	1
0	942	2.35	2
0	943	2.35	1
0	950	2.4	1
0	951	2.4	2
0	952	2.4	1
0	955	2.4	1
0	956	2.4	2
0	957	2.4	1
0	970	2.45	1
0	971	2.45	2
0	972	2.45	1
0	979	2.5	1
0	980	2.5	2
0	981	2.5	1
0	984	2.5	1
0	985	2.5	2
0	986	2.5	1
0	999	2.55	1
0	1000	2.55	2
0	1001	2.55	1
0	1008	2.6	1
0	1009	2.6	2
0	1010	2.6	1
0	1013	2.6	1
0	1014	2.6	2
0	1015	2.6	1
0	1028	2.65	1
0	1029	2.65	2
0	1030	2.65	1
0	1037	2.7	1
0	1038	2.7	2
0	1039	2.7	1
0	1042	2.7	1
0	1043	2.7	2
0	1044	2.7	1
0	1057	2.75	1
0	1058	2.75	2
0	1059	2.75	1
0	1115	2.8	1
0	1116	2.8	2
0	1117	2.8	1
0	1120	2.8	1
0	1121	2.8	2
0	1122	2.8	1
0	1135	2.85	1
0	1136	2.85	2
0	1137	2.85	1
0	1144	2.9	1
0	1145	2.9	2
0	1146	2.9	1
0	1149	2.9	1
0	1150	2.9	2
0	1151	2.9	1
0	1164	2.95	1
0	1165	2.95	2
0	1166	2.95	1
0	1173	3	1
0	1174	3	2
0	1175	3	1
0	1178	3	1
0	1179	3	2
0	1180	3	1
0	1193	3.05	1
0	1194	3.05	2
0	1195	3.05	1
0	1204	3.1	1
0	1205	3.1	2
0	1206	3.1	1
0	1209	3.1	1
0	1210	3.1	2
0	1211	3.1	1
0	1226	3.15	1
0	1227	3.15	2
0	1228	3.15	1
0	1235	3.2	1
0	1236	3.2	2
0	1237	3.2	1
0	1240	3.2	1
0	1241	3.2	2
0	1242	3.2	1
0	1255	3.25	1
0	1256	3.25	2
0	1257	3.25	1
0	1264	3.3	1
0	1265	3.3	2
0	1266	3.3	1
0	1269	3.3	1
0	1270	3.3	2
0	1271	3.3	1
0	1355	3.35	1
0	1356	3.35	2
0	1357	3.35	1
0	1378	3.4	1
0	1379	3.4	2
0	1380	3.4	1
0	1383	3.4	1
0	1384	3.4	2
0	1385	3.4	1
0	1398	3.45	1
0	1399	3.45	2
0	1400	3.45	1
0	1407	3.5	1
0	1408	3.5	2
0	1409	3.5	1
0	1412	3.5	1
0	1413	3.5	2
0	1414	3.5	1
0	1427	3.55	1
0	1428	3.55	2
0	1429	3.55	1
0	1436	3.6	1
0	1437	3.6	2
0	1438	3.6	1
0	1441	3.6	1
0	1442	3.6	2
0	1443	3.6	1
0	1456	3.65	1
0	1457	3.65	2
0	1458	3.65	1
0	1465	3.7	1
0	1466	3.7	2
0	1467	3.7	1
0	1470	3.7	1
0	1471	3.7	2
0	1472	3.7	1
0	1485	3.75	1
0	1486	3.75	2
0	1487	3.75	1
0	1494	3.8	1
0	1495	3.8	2
0	1496	3.8	1
0	1499	3.8	1
0	1500	3.8	2
0	1501	3.8	1
0	1514	3.85	1
0	1515	3.85	2
0	1516	3.85	1
0	1586	3.9	1
0	1587	3.9	2
0	1588	3.9	1
0	1591	3.9	1
0	1592	3.9	2
0	1593	3.9	1
0	1616	3.95	1
0	1617	3.95	2
0	1618	3.95	1
0	1625	4	1
0	1626	4	2
0	1627	4	1
0	1630	4	1
0	1631	4	2
0	1632	4	1
0	1645	4.05	1
0	1646	4.05	2
0	1647	4.05	1
0	1656	4.1	1
0	1657	4.1	2
0	1658	4.1	1
0	1661	4.1	1
0	1662	4.1	2
0	1663	4.1	1
0	1678	4.15	1
0	1679	4.15	2
0	1680	4.15	1
0	1687	4.2	1
0	1688	4.2	2
0	1689	4.2	1
0	1692	4.2	1
0	1693	4.2	2
0	1694	4.2	1
0	1707	4.25	1
0	1708	4.25	2
0	1709	4.25	1
0	1716	4.3	1
0	1717	4.3	2
0	1718	4.3	1
0	1721	4.3	1
0	1722	4.3	2
0	1723	4.3	1
0	1736	4.35	1
0	1737	4.35	2
0	1738	4.35	1
0	1745	4.4	1
0	1746	4.4	2
0	1747	4.4	1
0	1750	4.4	1
0	1751	4.4	2
0	1752	4.4	1
0	1839	4.45	1
0	1840	4.45	2
0	1841	4.45	1
0	1862	4.5	1
0	1863	4.5	2
0	1864	4.5	1
0	1867	4.5	1
0	1868	4.5	2
0	1869	4.5	1
0	1882	4.55	1
0	1883	4.55	2
0	1884	4.55	1
0	1891	4.6	1
0	1892	4.6	2
0	1893	4.6	1
0	1896	4.6	1
0	1897	4.6	2
0	1898	4.6	1
0	1911	4.65	1
0	1912	4.65	2
0	1913	4.65	1
0	1920	4.7	1
0	1921	4.7	2
0	1922	4.7	1
0	1925	4.7	1
0	1926	4.7	2
0	1927	4.7	1
0	1940	4.75	1
0	1941	4.75	2
0	1942	4.75	1
0	1949	4.8	1
0	1950	4.8	2
0	1951	4.8	1
0	1954	4.8	1
0	1955	4.8	2
0	1956	4.8	1
0	1969	4.85	1
0	1970	4.85	2
0	1971	4.85	1
0	1978	4.9	1
0	1979	4.9	2
0	1980	4.9	1
0	1983	4.9	1
0	1984	4.9	2
0	1985	4.9	1
0	1998	4.95	1
0	1999	4.95	2
0	2000	4.95	1
0	2061	5	1
0	2062	5	2
0	2063	5	1
0	2066	5	1
0	2067	5	2
0	2068	5	1
0	2081	5.05	1
0	2082	5.05	2
0	2083	5.05	1
0	2092	5.1	1
0	2093	5.1	2
0	2094	5.1	1
0	2097	5.1	1
0	2098	5.1	2
0	2099	5.1	1
0	2114	5.15	1
0	2115	5.15	2
0	2116	5.15	1
0	2123	5.2	1
0	2124	5.2	2
0	2125	5.2	1
0	2128	5.2	1
0	2129	5.2	2
0	2130	5.2	1
0	2143	5.25	1
0	2144	5.25	2
0	2145	5.25	1
0	2152	5.3	1
0	2153	5.3	2
0	2154	5.3	1
0	2157	5.3	1
0	2158	5.3	2
0	2159	5.3	1
0	2172	5.35	1
0	2173	5.35	2
0	2174	5.35	1
0	2181	5.4	1
0	2182	5.4	2
0	2183	5.4	1
0	2186	5.4	1
0	2187	5.4	2
0	2188	5.4	1
0	2201	5.45	1
0	2202	5.45	2
0	2203	5.45	1
0	2210	5.5	1
0	2211	5.5	2
0	2212	5.5	1
0	2215	5.5	1
0	2216	5.5	2
0	2217	5.5	1
0	2249	5.55	1
0	2250	5.55	2
0	2251	5.55	1
0	2258	5.6	1
0	2259	5.6	2
0	2260	5.6	1
0	2263	5.6	1
0	2264	5.6	2
0	2265	5.6	1
0	2278	5.65	1
0	2279	5.65	2
0	2280	5.65	1
0	2312	5.7	1
0	2313	5.7	2
0	2314	5.7	1
0	2317	5.7	1
0	2318	5.7	2
0	2319	5.7	1
0	2332	5.75	1
0	2333	5.75	2
0	2334	5.75	1
0	2341	5.8	1
0	2342	5.8	2
0	2343	5.8	1
0	2346	5.8	1
0	2347	5.8	2
0	2348	5.8	1
0	2361	5.85	1
0	2362	5.85	2
0	2363	5.85	1
0	2370	5.9	1
0	2371	5.9	2
0	2372	5.9	1
0	2375	5.9	1
0	2376	5.9	2
0	2377	5.9	1
0	2390	5.95	1
0	2391	5.95	2
0	2392	5.95	1
0	2399	6	1
0	2400	6	2
0	2401	6	1
0	2404	6	1
0	2405	6	2
0	2406	6	1
0	2419	6.05	1
0	2420	6.05	2
0	2421	6.05	1
0	2440	6.1	1
0	2441	6.1	2
0	2442	6.1	1
0	2445	6.1	1
0	2446	6.1	2
0	2447	6.1	1
0	2462	6.15	1
0	2463	6.15	2
0	2464	6.15	1
0	2471	6.2	1
0	2472	6.2	2
0	2473	6.2	1
0	2476	6.2	1
0	2477	6.2	2
0	2478	6.2	1
0	2516	6.25	1
0	2517	6.25	2
0	2518	6.25	1
0	2525	6.3	1
0	2526	6.3	2
0	2527	6.3	1
0	2530	6.3	1
0	2531	6.3	2
0	2532	6.3	1
0	2545	6.35	1
0	2546	6.35	2
0	2547	6.35	1
0	2554	6.4	1
0	2555	6.4	2
0	2556	6.4	1
0	2559	6.4	1
0	2560	6.4	2
0	2561	6.4	1
0	2574	6.45	1
0	2575	6.45	2
0	2576	6.45	1
0	2583	6.5	1
0	2584	6.5	2
0	2585	6.5	1
0	2588	6.5	1
0	2589	6.5	2
0	2590	6.5	1
0	2603	6.55	1
0	2604	6.55	2
0	2605	6.55	1
0	2612	6.6	1
0	2613	6.6	2
0	2614	6.6	1
0	2617	6.6	1
0	2618	6.6	2
0	2619	6.6	1
0	2645	6.65	1
0	2646	6.65	2
0	2647	6.65	1
0	2654	6.7	1
0	2655	6.7	2
0	2656	6.7	1
0	2659	6.7	1
0	2660	6.7	2
0	2661	6.7	1
0	2674	6.75	1
0	2675	6.75	2
0	2676	6.75	1
0	2696	6.8	1
0	2697	6.8	2
0	2698	6.8	1
0	2701	6.8	1
0	2702	6.8	2
0	2703	6.8	1
0	2716	6.85	1
0	2717	6.85	2
0	2718	6.85	1
0	2725	6.9	1
0	2726	6.9	2
0	2727	6.9	1
0	2730	6.9	1
0	2731	6.9	2
0	2732	6.9	1
0	2745	6.95	1
0	2746	6.95	2
0	2747	6.95	1
0	2754	7	1
0	2755	7	2
0	2756	7	1
0	2759	7	1
0	2760	7	2
0	2761	7	1
0	2774	7.05	1
0	2775	7.05	2
0	2776	7.05	1
0	2785	7.1	1
0	2786	7.1	2
0	2787	7.1	1
0	2790	7.1	1
0	2791	7.1	2
0	2792	7.1	1
0	2830	7.15	1
0	2831	7.15	2
0	2832	7.15	1
0	2852	7.2	1
0	2853	7.2	2
0	2854	7.2	1
0	2857	7.2	1
0	2858	7.2	2
0	2859	7.2	1
0	2872	7.25	1
0	2873	7.25	2
0	2874	7.25	1
0	2881	7.3	1
0	2882	7.3	2
0	2883	7.3	1
0	2886	7.3	1
0	2887	7.3	2
0	2888	7.3	1
0	2923	7.35	1
0	2924	7.35	2
0	2925	7.35	1
0	2932	7.4	1
0	2933	7.4	2
0	2934	7.4	1
0	2937	7.4	1
0	2938	7.4	2
0	2939	7.4	1
0	2952	7.45	1
0	2953	7.45	2
0	2954	7.45	1
0	2961	7.5	1
0	2962	7.5	2
0	2963	7.5	1
0	2966	7.5	1
0	2967	7.5	2
0	2968	7.5	1
0	2981	7.55	1
0	2982	7.55	2
0	2983	7.55	1
0	2990	7.6	1
0	2991	7.6	2
0	2992	7.6	1
0	2995	7.6	1
0	2996	7.6	2
0	2997	7.6	1
0	3010	7.65	1
0	3011	7.65	2
0	3012	7.65	1
0	3025	7.7	1
0	3026	7.7	2
0	3027	7.7	1
0	3030	7.7	1
0	3031	7.7	2
0	3032	7.7	1
0	3058	7.75	1
0	3059	7.75	2
0	3060	7.75	1
0	3067	7.8	1
0	3068	7.8	2
0	3069	7.8	1
0	3072	7.8	1
0	3073	7.8	2
0	3074	7.8	1
0	3087	7.85	1
0	3088	7.85	2
0	3089	7.85	1
0	3118	7.9	1
0	3119	7.9	2
0	3120	7.9	1
0	3123	7.9	1
0	3124	7.9	2
0	3125	7.9	1
0	3138	7.95	1
0	3139	7.95	2
0	3140	7.95	1
0	3147	8	1
0	3148	8	2
0	3149	8	1
0	3152	8	1
0	3153	8	2
0	3154	8	1
0	3167	8.05	1
0	3168	8.05	2
0	3169	8.05	1
0	3178	8.1	1
0	3179	8.1	2
0	3180	8.1	1
0	3183	8.1	1
0	3184	8.1	2
0	3185	8.1	1
0	3200	8.15	1
0	3201	8.15	2
0	3202	8.15	1
0	3209	8.2	1
0	3210	8.2	2
0	3211	8.2	1
0	3214	8.2	1
0	3215	8.2	2
0	3216	8.2	1
0	3229	8.25	1
0	3230	8.25	2
0	3231	8.25	1
0	3251	8.3	1
0	3252	8.3	2
0	3253	8.3	1
0	3256	8.3	1
0	3257	8.3	2
0	3258	8.3	1
0	3271	8.35	1
0	3272	8.35	2
0	3273	8.35	1
0	3280	8.4	1
0	3281	8.4	2
0	3282	8.4	1
0	3285	8.4	1
0	3286	8.4	2
0	3287	8.4	1
0	3337	8.45	1
0	3338	8.45	2
0	3339	8.45	1
0	3346	8.5	1
0	3347	8.5	2
0	3348	8.5	1
0	3351	8.5	1
0	3352	8.5	2
0	3353	8.5	1
0	3366	8.55	1
0	3367	8.55	2
0	3368	8.55	1
0	3375	8.6	1
0	3376	8.6	2
0	3377	8.6	1
0	3380	8.6	1
0	3381	8.6	2
0	3382	8.6	1
0	3395	8.65	1
0	3396	8.65	2
0	3397	8.65	1
0	3404	8.7	1
0	3405	8.7	2
0	3406	8.7	1
0	3409	8.7	1
0	3410	8.7	2
0	3411	8.7	1
0	3424	8.75	1
0	3425	8.75	2
0	3426	8.75	1
0	3433	8.8	1
0	3434	8.8	2
0	3435	8.8	1
0	3438	8.8	1
0	3439	8.8	2
0	3440	8.8	1
0	3466	8.85	1
0	3467	8.85	2
0	3468	8.85	1
0	3475	8.9	1
0	3476	8.9	2
0	3477	8.9	1
0	3480	8.9	1
0	3481	8.9	2
0	3482	8.9	1
0	3495	8.95	1
0	3496	8.95	2
0	3497	8.95	1
0	3517	9	1
0	3518	9	2
0	3519	9	1
0	3522	9	1
0	3523	9	2
0	3524	9	1
0	3537	9.05	1
0	3538	9.05	2
0	3539	9.05	1
0	3548	9.1	1
0	3549	9.1	2
0	3550	9.1	1
0	3553	9.1	1
0	3554	9.1	2
0	3555	9.1	1
0	3570	9.15	1
0	3571	9.15	2
0	3572	9.15	1
0	3579	9.2	1
0	3580	9.2	2
0	3581	9.2	1
0	3584	9.2	1
0	3585	9.2	2
0	3586	9.2	1
0	3612	9.25	1
0	3613	9.25	2
0	3614	9.25	1
0	3621	9.3	1
0	3622	9.3	2
0	3623	9.3	1
0	3626	9.3	1
0	3627	9.3	2
0	3628	9.3	1
0	3641	9.35	1
0	3642	9.35	2
0	3643	9.35	1
0	3663	9.4	1
0	3664	9.4	2
0	3665	9.4	1
0	3668	9.4	1
0	3669	9.4	2
0	3670	9.4	1
0	3683	9.45	1
0	3684	9.45	2
0	3685	9.45	1
0	3692	9.5	1
0	3693	9.5	1
0	3694	9.5	0
0	3697	9.5	1
0	3698	9.5	1
0	3699	9.5	0
0	3721	9.55	1
0	3722	9.55	1
0	3723	9.55	0
0	3728	9.6	1
0	3729	9.6	1
0	3730	9.6	0
0	3733	9.6	1
0	3734	9.6	1
0	3735	9.6	0
0	3744	9.65	1
0	3745	9.65	1
0	3746	9.65	0
0	3751	9.7	1
0	3752	9.7	1
0	3753	9.7	0
0	3756	9.7	1
0	3757	9.7	1
0	3758	9.7	0
0	3767	9.75	1
0	3768	9.75	1
0	3769	9.75	0
0	3774	9.8	1
0	3775	9.8	1
0	3776	9.8	0
0	3779	9.8	1
0	3780	9.8	1
0	3781	9.8	0
0	3790	9.85	1
0	3791	9.85	1
0	3792	9.85	0
0	3797	9.9	1
0	3798	9.9	1
0	3799	9.9	0
0	3802	9.9	1
0	3803	9.9	1
0	3804	9.9	0
0	3816	9.95	1
0	3817	9.95	1
0	3818	9.95	0
0	3823	10	1
0	3824	10	1
0	3825	10	0
0	3828	10	1
0	3829	10	1
0	3830	10	0
0	3839	10.05	1
0	3840	10.05	1
0	3841	10.05	0
0	3848	10.1	1
0	3849	10.1	1
0	3850	10.1	0
0	3853	10.1	1
0	3854	10.1	1
0	3855	10.1	0
0	3866	10.15	1
0	3867	10.15	1
0	3868	10.15	0
0	3873	10.2	1
0	3874	10.2	1
0	3875	10.2	0
0	3878	10.2	1
0	3879	10.2	1
0	3880	10.2	0
0	3889	10.25	1
0	3890	10.25	1
0	3891	10.25	0
0	3896	10.3	1
0	3897	10.3	1
0	3898	10.3	0
0	3901	10.3	1
0	3902	10.3	1
0	3903	10.3	0
0	3912	10.35	1
0	3913	10.35	1
0	3914	10.35	0
0	3919	10.4	1
0	3920	10.4	1
0	3921	10.4	0
0	3924	10.4	1
0	3925	10.4	1
0	3926	10.4	0
0	3935	10.45	1
0	3936	10.45	1
0	3937	10.45	0
0	3942	10.5	1
0	3943	10.5	1
0	3944	10.5	0
0	3947	10.5	1
0	3948	10.5	1
0	3949	10.5	0
0	3958	10.55	1
0	3959	10.55	1
0	3960	10.55	0
0	3965	10.6	1
0	3966	10.6	1
0	3967	10.6	0
0	3970	10.6	1
0	3971	10.6	1
0	3972	10.6	0
0	3981	10.65	1
0	3982	10.65	1
0	3983	10.65	0
0	3988	10.7	1
0	3989	10.7	1
0	3990	10.7	0
0	3993	10.7	1
0	3994	10.7	1
0	3995	10.7	0
0	4004	10.75	1
0	4005	10.75	1
0	4006	10.75	0
0	4011	10.8	1
0	4012	10.8	1
0	4013	10.8	0
0	4016	10.8	1
0	4017	10.8	1
0	4018	10.8	0
0	4027	10.85	1
0	4028	10.85	1
0	4029	10.85	0
0	4034	10.9	1
0	4035	10.9	1
0	4036	10.9	0
0	4039	10.9	1
0	4040	10.9	1
0	4041	10.9	0
0	4050	10.95	1
0	4051	10.95	1
0	4052	10.95	0
0	4057	11	1
0	4058	11	1
0	4059	11	0
0	4062	11	1
0	4063	11	1
0	4064	11	0
0	4073	11.05	1
0	4074	11.05	1
0	4075	11.05	0
0	4082	11.1	1
0	4083	11.1	1
0	4084	11.1	0
0	4087	11.1	1
0	4088	11.1	1
0	4089	11.1	0
0	4113	11.15	1
0	4114	11.15	1
0	4115	11.15	0
0	4120	11.2	1
0	4121	11.2	1
0	4122	11.2	0
0	4125	11.2	1
0	4126	11.2	1
0	4127	11.2	0
0	4136	11.25	1
0	4137	11.25	1
0	4138	11.25	0
0	4156	11.3	1
0	4157	11.3	1
0	4158	11.3	0
0	4161	11.3	1
0	4162	11.3	1
0	4163	11.3	0
0	4172	11.35	1
0	4173	11.35	1
0	4174	11.35	0
0	4179	11.4	1
0	4180	11.4	1
0	4181	11.4	0
0	4184	11.4	1
0	4185	11.4	1
0	4186	11.4	0
0	4195	11.45	1
0	4196	11.45	1
0	4197	11.45	0
0	4202	11.5	1
0	4203	11.5	1
0	4204	11.5	0
0	4207	11.5	1
0	4208	11.5	1
0	4209	11.5	0
0	4218	11.55	1
0	4219	11.55	1
0	4220	11.55	0
0	4225	11.6	1
0	4226	11.6	1
0	4227	11.6	0
0	4230	11.6	1
0	4231	11.6	1
0	4232	11.6	0
0	4241	11.65	1
0	4242	11.65	1
0	4243	11.65	0
0	4261	11.7	1
0	4262	11.7	1
0	4263	11.7	0
0	4266	11.7	1
0	4267	11.7	1
0	4268	11.7	0
0	4277	11.75	1
0	4278	11.75	1
0	4279	11.75	0
0	4284	11.8	1
0	4285	11.8	1
0	4286	11.8	0
0	4289	11.8	1
0	4290	11.8	1
0	4291	11.8	0
0	4313	11.85	1
0	4314	11.85	1
0	4315	11.85	0
0	4320	11.9	1
0	4321	11.9	1
0	4322	11.9	0
0	4325	11.9	1
0	4326	11.9	1
0	4327	11.9	0
0	4336	11.95	1
0	4337	11.95	1
0	4338	11.95	0
0	4343	12	1
0	4344	12	1
0	4345	12	0
0	4348	12	1
0	4349	12	1
0	4350	12	0
0	4359	12.05	1
0	4360	12.05	1
0	4361	12.05	0
0	4368	12.1	1
0	4369	12.1	1
0	4370	12.1	0
0	4373	12.1	1
0	4374	12.1	1
0	4375	12.1	0
0	4386	12.15	1
0	4387	12.15	1
0	4388	12.15	0
0	4393	12.2	1
0	4394	12.2	1
0	4395	12.2	0
0	4398	12.2	1
0	4399	12.2	1
0	4400	12.2	0
0	4422	12.25	1
0	4423	12.25	1
0	4424	12.25	0
0	4429	12.3	1
0	4430	12.3	1
0	4431	12.3	0
0	4434	12.3	1
0	4435	12.3	1
0	4436	12.3	0
0	4445	12.35	1
0	4446	12.35	1
0	4447	12.35	0
0	4465	12.4	1
0	4466	12.4	1
0	4467	12.4	0
0	4470	12.4	1
0	4471	12.4	1
0	4472	12.4	0
0	4481	12.45	1
0	4482	12.45	1
0	4483	12.45	0
0	4488	12.5	1
0	4489	12.5	1
0	4490	12.5	0
0	4493	12.5	1
0	4494	12.5	1
0	4495	12.5	0
0	4504	12.55	1
0	4505	12.55	1
0	4506	12.55	0
0	4511	12.6	1
0	4512	12.6	1
0	4513	12.6	0
0	4516	12.6	1
0	4517	12.6	1
0	4518	12.6	0
0	4527	12.65	1
0	4528	12.65	1
0	4529	12.65	0
0	4534	12.7	1
0	4535	12.7	1
0	4536	12.7	0
0	4539	12.7	1
0	4540	12.7	1
0	4541	12.7	0
0	4550	12.75	1
0	4551	12.75	1
0	4552	12.75	0
0	4570	12.8	1
0	4571	12.8	1
0	4572	12.8	0
0	4575	12.8	1
0	4576	12.8	1
0	4577	12.8	0
0	4586	12.85	1
0	4587	12.85	1
0	4588	12.85	0
0	4593	12.9	1
0	4594	12.9	1
0	4595	12.9	0
0	4598	12.9	1
0	4599	12.9	1
0	4600	12.9	0
0	4622	12.95	1
0	4623	12.95	1
0	4624	12.95	0
0	4629	13	1
0	4630	13	1
0	4631	13	0
0	4634	13	1
0	4635	13	1
0	4636	13	0
0	4645	13.05	1
0	4646	13.05	1
0	4647	13.05	0
0	4654	13.1	1
0	4655	13.1	1
0	4656	13.1	0
0	4659	13.1	1
0	4660	13.1	1
0	4661	13.1	0
0	4672	13.15	1
0	4673	13.15	1
0	4674	13.15	0
0	4679	13.2	1
0	4680	13.2	1
0	4681	13.2	0
0	4684	13.2	1
0	4685	13.2	1
0	4686	13.2	0
0	4695	13.25	1
0	4696	13.25	1
0	4697	13.25	0
0	4702	13.3	1
0	4703	13.3	1
0	4704	13.3	0
0	4707	13.3	1
0	4708	13.3	1
0	4709	13.3	0
0	4731	13.35	1
0	4732	13.35	1
0	4733	13.35	0
0	4738	13.4	1
0	4739	13.4	1
0	4740	13.4	0
0	4743	13.4	1
0	4744	13.4	1
0	4745	13.4	0
0	4754	13.45	1
0	4755	13.45	1
0	4756	13.45	0
0	4774	13.5	1
0	4775	13.5	1
0	4776	13.5	0
0	4779	13.5	1
0	4780	13.5	1
0	4781	13.5	0
0	4790	13.55	1
0	4791	13.55	1
0	4792	13.55	0
0	4797	13.6	1
0	4798	13.6	1
0	4799	13.6	0
0	4802	13.6	1
0	4803	13.6	1
0	4804	13.6	0
0	4813	13.65	1
0	4814	13.65	1
0	4815	13.65	0
0	4820	13.7	1
0	4821	13.7	1
0	4822	13.7	0
0	4825	13.7	1
0	4826	13.7	1
0	4827	13.7	0
0	4836	13.75	1
0	4837	13.75	1
0	4838	13.75	0
0	4843	13.8	1
0	4844	13.8	1
0	4845	13.8	0
0	4848	13.8	1
0	4849	13.8	1
0	4850	13.8	0
0	4859	13.85	1
0	4860	13.85	1
0	4861	13.85	0
0	4879	13.9	1
0	4880	13.9	1
0	4881	13.9	0
0	4884	13.9	1
0	4885	13.9	1
0	4886	13.9	0
0	4895	13.95	1
0	4896	13.95	1
0	4897	13.95	0
0	4902	14	1
0	4903	14	1
0	4904	14	0
0	4907	14	1
0	4908	14	1
0	4909	14	0
0	4931	14.05	1
0	4932	14.05	1
0	4933	14.05	0
0	4940	14.1	1
0	4941	14.1	1
0	4942	14.1	0
0	4945	14.1	1
0	4946	14.1	1
0	4947	14.1	0
0	4958	14.15	1
0	4959	14.15	1
0	4960	14.15	0
0	4965	14.2	1
0	4966	14.2	1
0	4967	14.2	0
0	4970	14.2	1
0	4971	14.2	1
0	4972	14.2	0
0	4981	14.25	1
0	4982	14.25	1
0	4983	14.25	0
0	4988	14.3	1
0	4989	14.3	1
0	4990	14.3	0
0	4993	14.3	1
0	4994	14.3	1
0	4995	14.3	0
0	5004	14.35	1
0	5005	14.35	1
0	5006	14.35	0
0	5011	14.4	1
0	5012	14.4	1
0	5013	14.4	0
0	5016	14.4	1
0	5017	14.4	1
0	5018	14.4	0
0	5040	14.45	1
0	5041	14.45	1
0	5042	14.45	0
0	5047	14.5	1
0	5048	14.5	1
0	5049	14.5	0
0	5052	14.5	1
0	5053	14.5	1
0	5054	14.5	0
0	5063	14.55	1
0	5064	14.55	1
0	5065	14.55	0
0	5083	14.6	1
0	5084	14.6	1
0	5085	14.6	0
0	5088	14.6	1
0	5089	14.6	1
0	5090	14.6	0
0	5099	14.65	1
0	5100	14.65	1
0	5101	14.65	0
0	5106	14.7	1
0	5107	14.7	1
0	5108	14.7	0
0	5111	14.7	1
0	5112	14.7	1
0	5113	14.7	0
0	5122	14.75	1
0	5123	14.75	1
0	5124	14.75	0
0	5129	14.8	1
0	5130	14.8	1
0	5131	14.8	0
0	5134	14.8	1
0	5135	14.8	1
0	5136	14.8	0
0	5145	14.85	1
0	5146	14.85	1
0	5147	14.85	0
0	5152	14.9	1
0	5153	14.9	1
0	5154	14.9	0
0	5157	14.9	1
0	5158	14.9	1
0	5159	14.9	0
0	5168	14.95	1
0	5169	14.95	1
0	5170	14.95	0
0	5188	15	1
0	5189	15	1
0	5190	15	0
0	5193	15	1
0	5194	15	1
0	5195	15	0
0	5204	15.05	1
0	5205	15.05	1
0	5206	15.05	0
0	5213	15.1	1
0	5214	15.1	1
0	5215	15.1	0
0	5218	15.1	1
0	5219	15.1	1
0	5220	15.1	0
0	5244	15.15	1
0	5245	15.15	1
0	5246	15.15	0
0	5251	15.2	1
0	5252	15.2	1
0	5253	15.2	0
0	5256	15.2	1
0	5257	15.2	1
0	5258	15.2	0
0	5267	15.25	1
0	5268	15.25	1
0	5269	15.25	0
0	5274	15.3	1
0	5275	15.3	1
0	5276	15.3	0
0	5279	15.3	1
0	5280	15.3	1
0	5281	15.3	0
0	5290	15.35	1
0	5291	15.35	1
0	5292	15.35	0
0	5297	15.4	1
0	5298	15.4	1
0	5299	15.4	0
0	5302	15.4	1
0	5303	15.4	1
0	5304	15.4	0
0	5313	15.45	1
0	5314	15.45	1
0	5315	15.45	0
0	5320	15.5	1
0	5321	15.5	1
0	5322	15.5	0
0	5325	15.5	1
0	5326	15.5	1
0	5327	15.5	0
0	5349	15.55	1
0	5350	15.55	1
0	5351	15.55	0
0	5356	15.6	1
0	5357	15.6	1
0	5358	15.6	0
0	5361	15.6	1
0	5362	15.6	1
0	5363	15.6	0
0	5372	15.65	1
0	5373	15.65	1
0	5374	15.65	0
0	5392	15.7	1
0	5393	15.7	1
0	5394	15.7	0
0	5397	15.7	1
0	5398	15.7	1
0	5399	15.7	0
0	5408	15.75	1
0	5409	15.75	1
0	5410	15.75	0
0	5415	15.8	1
0	5416	15.8	1
0	5417	15.8	0
0	5420	15.8	1
0	5421	15.8	1
0	5422	15.8	0
0	5431	15.85	1
0	5432	15.85	1
0	5433	15.85	0
0	5438	15.9	1
0	5439	15.9	1
0	5440	15.9	0
0	5443	15.9	1
0	5444	15.9	1
0	5445	15.9	0
0	5454	15.95	1
0	5455	15.95	1
0	5456	15.95	0
0	5461	16	1
0	5462	16	1
0	5463	16	0
0	5466	16	1
0	5467	16	1
0	5468	16	0
0	5477	16.05	1
0	5478	16.05	1
0	5479	16.05	0
0	5489	16.1	1
0	5490	16.1	1
0	5491	16.1	0
0	5494	16.1	1
0	5495	16.1	1
0	5496	16.1	0
0	5507	16.15	1
0	5508	16.15	1
0	5509	16.15	0
0	5514	16.2	1
0	5515	16.2	1
0	5516	16.2	0
0	5519	16.2	1
0	5520	16.2	1
0	5521	16.2	0
0	5530	16.25	1
0	5531	16.25	1
0	5532	16.25	0
0	5537	16.3	1
0	5538	16.3	1
0	5539	16.3	0
0	5542	16.3	1
0	5543	16.3	1
0	5544	16.3	0
0	5553	16.35	1
0	5554	16.35	1
0	5555	16.35	0
0	5560	16.4	1
0	5561	16.4	1
0	5562	16.4	0
0	5565	16.4	1
0	5566	16.4	1
0	5567	16.4	0
0	5576	16.45	1
0	5577	16.45	1
0	5578	16.45	0
0	5583	16.5	1
0	5584	16.5	1
0	5585	16.5	0
0	5588	16.5	1
0	5589	16.5	1
0	5590	16.5	0
0	5599	16.55	1
0	5600	16.55	1
0	5601	16.55	0
0	5606	16.6	1
0	5607	16.6	1
0	5608	16.6	0
0	5611	16.6	1
0	5612	16.6	1
0	5613	16.6	0
0	5622	16.65	1
0	5623	16.65	1
0	5624	16.65	0
0	5629	16.7	1
0	5630	16.7	1
0	5631	16.7	0
0	5634	16.7	1
0	5635	16.7	1
0	5636	16.7	0
0	5645	16.75	1
0	5646	16.75	1
0	5647	16.75	0
0	5652	16.8	1
0	5653	16.8	1
0	5654	16.8	0
0	5657	16.8	1
0	5658	16.8	1
0	5659	16.8	0
0	5668	16.85	1
0	5669	16.85	1
0	5670	16.85	0
0	5675	16.9	1
0	5676	16.9	1
0	5677	16.9	0
0	5680	16.9	1
0	5681	16.9	1
0	5682	16.9	0
0	5691	16.95	1
0	5692	16.95	1
0	5693	16.95	0
0	5698	17	1
0	5699	17	1
0	5700	17	0
0	5703	17	1
0	5704	17	1
0	5705	17	0
0	5714	17.05	1
0	5715	17.05	1
0	5716	17.05	0
0	5723	17.1	1
0	5724	17.1	1
0	5725	17.1	0
0	5728	17.1	1
0	5729	17.1	1
0	5730	17.1	0
0	5741	17.15	1
0	5742	17.15	1
0	5743	17.15	0
0	5748	17.2	1
0	5749	17.2	1
0	5750	17.2	0
0	5753	17.2	1
0	5754	17.2	1
0	5755	17.2	0
0	5764	17.25	1
0	5765	17.25	1
0	5766	17.25	0
0	5784	17.3	1
0	5785	17.3	1
0	5786	17.3	0
0	5789	17.3	1
0	5790	17.3	1
0	5791	17.3	0
0	5800	17.35	1
0	5801	17.35	1
0	5802	17.35	0
0	5807	17.4	1
0	5808	17.4	1
0	5809	17.4	0
0	5812	17.4	1
0	5813	17.4	1
0	5814	17.4	0
0	5833	17.45	1
0	5834	17.45	1
0	5835	17.45	0
0	5840	17.5	1
0	5841	17.5	1
0	5842	17.5	0
0	5845	17.5	1
0	5846	17.5	1
0	5847	17.5	0
0	5856	17.55	1
0	5857	17.55	1
0	5858	17.55	0
0	5863	17.6	1
0	5864	17.6	1
0	5865	17.6	0
0	5868	17.6	1
0	5869	17.6	1
0	5870	17.6	0
0	5879	17.65	1
0	5880	17.65	1
0	5881	17.65	0
0	5886	17.7	1
0	5887	17.7	1
0	5888	17.7	0
0	5891	17.7	1
0	5892	17.7	1
0	5893	17.7	0
0	5902	17.75	1
0	5903	17.75	1
0	5904	17.75	0
0	5909	17.8	1
0	5910	17.8	1
0	5911	17.8	0
0	5914	17.8	1
0	5915	17.8	1
0	5916	17.8	0
0	5938	17.85	1
0	5939	17.85	1
0	5940	17.85	0
0	5945	17.9	1
0	5946	17.9	1
0	5947	17.9	0
0	5950	17.9	1
0	5951	17.9	1
0	5952	17.9	0
0	5961	17.95	1
0	5962	17.95	1
0	5963	17.95	0
0	5981	18	1
0	5982	18	1
0	5983	18	0
0	5986	18	1
0	5987	18	1
0	5988	18	0
0	5997	18.05	1
0	5998	18.05	1
0	5999	18.05	0
0	6006	18.1	1
0	6007	18.1	1
0	6008	18.1	0
0	6011	18.1	1
0	6012	18.1	1
0	6013	18.1	0
0	6024	18.15	1
0	6025	18.15	1
0	6026	18.15	0
0	6031	18.2	1
0	6032	18.2	1
0	6033	18.2	0
0	6036	18.2	1
0	6037	18.2	1
0	6038	18.2	0
0	6047	18.25	1
0	6048	18.25	1
0	6049	18.25	0
0	6054	18.3	1
0	6055	18.3	1
0	6056	18.3	0
0	6059	18.3	1
0	6060	18.3	1
0	6061	18.3	0
0	6070	18.35	1
0	6071	18.35	1
0	6072	18.35	0
0	6090	18.4	1
0	6091	18.4	1
0	6092	18.4	0
0	6095	18.4	1
0	6096	18.4	1
0	6097	18.4	0
0	6106	18.45	1
0	6107	18.45	1
0	6108	18.45	0
0	6113	18.5	1
0	6114	18.5	1
0	6115	18.5	0
0	6118	18.5	1
0	6119	18.5	1
0	6120	18.5	0
0	6142	18.55	1
0	6143	18.55	1
0	6144	18.55	0
0	6149	18.6	1
0	6150	18.6	1
0	6151	18.6	0
0	6154	18.6	1
0	6155	18.6	1
0	6156	18.6	0
0	6165	18.65	1
0	6166	18.65	1
0	6167	18.65	0
0	6172	18.7	1
0	6173	18.7	1
0	6174	18.7	0
0	6177	18.7	1
0	6178	18.7	1
0	6179	18.7	0
0	6188	18.75	1
0	6189	18.75	1
0	6190	18.75	0
0	6195	18.8	1
0	6196	18.8	1
0	6197	18.8	0
0	6200	18.8	1
0	6201	18.8	1
0	6202	18.8	0
0	6211	18.85	1
0	6212	18.85	1
0	6213	18.85	0
0	6218	18.9	1
0	6219	18.9	1
0	6220	18.9	0
0	6223	18.9	1
0	6224	18.9	1
0	6225	18.9	0
0	6247	18.95	1
0	6248	18.95	1
0	6249	18.95	0
0	6254	19	1
0	6255	19	1
0	6256	19	0
0	6259	19	1
0	6260	19	1
0	6261	19	0
0	6270	19.05	1
0	6271	19.05	1
0	6272	19.05	0
0	6292	19.1	1
0	6293	19.1	1
0	6294	19.1	0
0	6297	19.1	1
0	6298	19.1	1
0	6299	19.1	0
0	6310	19.15	1
0	6311	19.15	1
0	6312	19.15	0
0	6317	19.2	1
0	6318	19.2	1
0	6319	19.2	0
0	6322	19.2	1
0	6323	19.2	1
0	6324	19.2	0
0	6333	19.25	1
0	6334	19.25	1
0	6335	19.25	0
0	6340	19.3	1
0	6341	19.3	1
0	6342	19.3	0
0	6345	19.3	1
0	6346	19.3	1
0	6347	19.3	0
0	6356	19.35	1
0	6357	19.35	1
0	6358	19.35	0
0	6363	19.4	1
0	6364	19.4	1
0	6365	19.4	0
0	6368	19.4	1
0	6369	19.4	1
0	6370	19.4	0
0	6379	19.45	1
0	6380	19.45	1
0	6381	19.45	0
0	6399	19.5	1
0	6400	19.5	1
0	6401	19.5	0
0	6404	19.5	1
0	6405	19.5	1
0	6406	19.5	0
0	6415	19.55	1
0	6416	19.55	1
0	6417	19.55	0
0	6422	19.6	1
0	6423	19.6	1
0	6424	19.6	0
0	6427	19.6	1
0	6428	19.6	1
0	6429	19.6	0
0	6451	19.65	1
0	6452	19.65	1
0	6453	19.65	0
0	6458	19.7	1
0	6459	19.7	1
0	6460	19.7	0
0	6463	19.7	1
0	6464	19.7	1
0	6465	19.7	0
0	6474	19.75	1
0	6475	19.75	1
0	6476	19.75	0
0	6481	19.8	1
0	6482	19.8	1
0	6483	19.8	0
0	6486	19.8	1
0	6487	19.8	1
0	6488	19.8	0
0	6497	19.85	1
0	6498	19.85	1
0	6499	19.85	0
0	6504	19.9	1
0	6505	19.9	1
0	6506	19.9	0
0	6509	19.9	1
0	6510	19.9	1
0	6511	19.9	0
0	6520	19.95	1
0	6521	19.95	1
0	6522	19.95	0
0	6527	20	1
0	6528	20	1
0	6529	20	0
0	6532	20	1
0	6533	20	1
0	6534	20	0
0	6553	20.05	1
0	6554	20.05	1
0	6555	20.05	0
0	6562	20.1	1
0	6563	20.1	1
0	6564	20.1	0
0	6566	20.1	1
0	6567	20.1	1
0	6568	20.1	0
0	6579	20.15	1
0	6580	20.15	1
0	6581	20.15	0
0	6599	20.2	1
0	6600	20.2	1
0	6601	20.2	0
0	6603	20.2	1
0	6604	20.2	1
0	6605	20.2	0
0	6614	20.25	1
0	6615	20.25	1
0	6616	20.25	0
0	6621	20.3	1
0	6622	20.3	1
0	6623	20.3	0
0	6625	20.3	1
0	6626	20.3	1
0	6627	20.3	0
0	6636	20.35	1
0	6637	20.35	1
0	6638	20.35	0
0	6643	20.4	1
0	6644	20.4	1
0	6645	20.4	0
0	6647	20.4	1
0	6648	20.4	1
0	6649	20.4	0
0	6658	20.45	1
0	6659	20.45	1
0	6660	20.45	0
0	6665	20.5	1
0	6666	20.5	1
0	6667	20.5	0
0	6669	20.5	1
0	6670	20.5	1
0	6671	20.5	0
0	6680	20.55	1
0	6681	20.55	1
0	6682	20.55	0
0	6697	20.6	1
0	6698	20.6	1
0	6699	20.6	0
0	6701	20.6	1
0	6702	20.6	1
0	6703	20.6	0
0	6712	20.65	1
0	6713	20.65	1
0	6714	20.65	0
0	6719	20.7	1
0	6720	20.7	1
0	6721	20.7	0
0	6723	20.7	1
0	6724	20.7	1
0	6725	20.7	0
0	6747	20.75	1
0	6748	20.75	1
0	6749	20.75	0
0	6754	20.8	1
0	6755	20.8	1
0	6756	20.8	0
0	6758	20.8	1
0	6759	20.8	1
0	6760	20.8	0
0	6769	20.85	1
0	6770	20.85	1
0	6771	20.85	0
0	6776	20.9	1
0	6777	20.9	1
0	6778	20.9	0
0	6780	20.9	1
0	6781	20.9	1
0	6782	20.9	0
0	6791	20.95	1
0	6792	20.95	1
0	6793	20.95	0
0	6798	21	1
0	6799	21	1
0	6800	21	0
0	6802	21	1
0	6803	21	1
0	6804	21	0
0	6813	21.05	1
0	6814	21.05	1
0	6815	21.05	0
0	6822	21.1	1
0	6823	21.1	1
0	6824	21.1	0
0	6826	21.1	1
0	6827	21.1	1
0	6828	21.1	0
0	6842	21.15	1
0	6843	21.15	1
0	6844	21.15	0
0	6849	21.2	1
0	6850	21.2	1
0	6851	21.2	0
0	6853	21.2	1
0	6854	21.2	1
0	6855	21.2	0
0	6864	21.25	1
0	6865	21.25	1
0	6866	21.25	0
0	6871	21.3	1
0	6872	21.3	1
0	6873	21.3	0
0	6875	21.3	1
0	6876	21.3	1
0	6877	21.3	0
0	6886	21.35	1
0	6887	21.35	1
0	6888	21.35	0
0	6893	21.4	1
0	6894	21.4	1
0	6895	21.4	0
0	6897	21.4	1
0	6898	21.4	1
0	6899	21.4	0
0	6908	21.45	1
0	6909	21.45	1
0	6910	21.45	0
0	6915	21.5	1
0	6916	21.5	1
0	6917	21.5	0
0	6919	21.5	1
0	6920	21.5	1
0	6921	21.5	0
0	6930	21.55	1
0	6931	21.55	1
0	6932	21.55	0
0	6937	21.6	1
0	6938	21.6	1
0	6939	21.6	0
0	6941	21.6	1
0	6942	21.6	1
0	6943	21.6	0
0	6952	21.65	1
0	6953	21.65	1
0	6954	21.65	0
0	6959	21.7	1
0	6960	21.7	1
0	6961	21.7	0
0	6963	21.7	1
0	6964	21.7	1
0	6965	21.7	0
0	6974	21.75	1
0	6975	21.75	1
0	6976	21.75	0
0	6981	21.8	1
0	6982	21.8	1
0	6983	21.8	0
0	6985	21.8	1
0	6986	21.8	1
0	6987	21.8	0
0	6996	21.85	1
0	6997	21.85	1
0	6998	21.85	0
0	7003	21.9	1
0	7004	21.9	1
0	7005	21.9	0
0	7007	21.9	1
0	7008	21.9	1
0	7009	21.9	0
0	7018	21.95	1
0	7019	21.95	1
0	7020	21.95	0
0	7025	22	1
0	7026	22	1
0	7027	22	0
0	7029	22	1
0	7030	22	1
0	7031	22	0
0	7040	22.05	1
0	7041	22.05	1
0	7042	22.05	0
0	7049	22.1	1
0	7050	22.1	1
0	7051	22.1	0
0	7053	22.1	1
0	7054	22.1	1
0	7055	22.1	0
0	7066	22.15	1
0	7067	22.15	1
0	7068	22.15	0
0	7073	22.2	1
0	7074	22.2	1
0	7075	22.2	0
0	7077	22.2	1
0	7078	22.2	1
0	7079	22.2	0
0	7088	22.25	1
0	7089	22.25	1
0	7090	22.25	0
0	7095	22.3	1
0	7096	22.3	1
0	7097	22.3	0
0	7099	22.3	1
0	7100	22.3	1
0	7101	22.3	0
0	7113	22.35	1
0	7114	22.35	1
0	7115	22.35	0
0	7120	22.4	1
0	7121	22.4	1
0	7122	22.4	0
0	7124	22.4	1
0	7125	22.4	1
0	7126	22.4	0
0	7135	22.45	1
0	7136	22.45	1
0	7137	22.45	0
0	7142	22.5	1
0	7143	22.5	1
0	7144	22.5	0
0	7146	22.5	1
0	7147	22.5	1
0	7148	22.5	0
0	7157	22.55	1
0	7158	22.55	1
0	7159	22.55	0
0	7164	22.6	1
0	7165	22.6	1
0	7166	22.6	0
0	7168	22.6	1
0	7169	22.6	1
0	7170	22.6	0
0	7179	22.65	1
0	7180	22.65	1
0	7181	22.65	0
0	7186	22.7	1
0	7187	22.7	1
0	7188	22.7	0
0	7190	22.7	1
0	7191	22.7	1
0	7192	22.7	0
0	7204	22.75	1
0	7205	22.75	1
0	7206	22.75	0
0	7211	22.8	1
0	7212	22.8	1
0	7213	22.8	0
0	7215	22.8	1
0	7216	22.8	1
0	7217	22.8	0
0	7226	22.85	1
0	7227	22.85	1
0	7228	22.85	0
0	7233	22.9	1
0	7234	22.9	1
0	7235	22.9	0
0	7237	22.9	1
0	7238	22.9	1
0	7239	22.9	0
0	7248	22.95	1
0	7249	22.95	1
0	7250	22.95	0
0	7255	23	1
0	7256	23	1
0	7257	23	0
0	7259	23	1
0	7260	23	1
0	7261	23	0
0	7270	23.05	1
0	7271	23.05	1
0	7272	23.05	0
0	7279	23.1	0
0	7280	23.1	0
0	7281	23.1	0
0	7283	23.1	0
0	7284	23.1	0
0	7285	23.1	0
0	7288	23.15	0
0	7289	23.15	0
0	7290	23.15	0
0	7291	23.2	0
0	7292	23.2	0
0	7293	23.2	0
0	7295	23.2	0
0	7296	23.2	0
0	7297	23.2	0
0	7298	23.25	0
0	7299	23.25	0
0	7300	23.25	0
0	7301	23.3	0
0	7302	23.3	0
0	7303	23.3	0
0	7305	23.3	0
0	7306	23.3	0
0	7307	23.3	0
0	7308	23.35	0
0	7309	23.35	0
0	7310	23.35	0
0	7311	23.4	0
0	7312	23.4	0
0	7313	23.4	0
0	7315	23.4	0
0	7316	23.4	0
0	7317	23.4	0
0	7318	23.45	0
0	7319	23.45	0
0	7320	23.45	0
0	7321	23.5	0
0	7322	23.5	0
0	7323	23.5	0
0	7325	23.5	0
0	7326	23.5	0
0	7327	23.5	0
0	7328	23.55	0
0	7329	23.55	0
0	7330	23.55	0
0	7331	23.6	0
0	7332	23.6	0
0	7333	23.6	0
0	7335	23.6	0
0	7336	23.6	0
0	7337	23.6	0
0	7338	23.65	0
0	7339	23.65	0
0	7340	23.65	0
0	7341	23.7	0
0	7342	23.7	0
0	7343	23.7	0
0	7345	23.7	0
0	7346	23.7	0
0	7347	23.7	0
0	7348	23.75	0
0	7349	23.75	0
0	7350	23.75	0
0	7351	23.8	0
0	7352	23.8	0
0	7353	23.8	0
0	7355	23.8	0
0	7356	23.8	0
0	7357	23.8	0
0	7358	23.85	0
0	7359	23.85	0
0	7360	23.85	0
0	7361	23.9	0
0	7362	23.9	0
0	7363	23.9	0
0	7365	23.9	0
0	7366	23.9	0
0	7367	23.9	0
0	7368	23.95	0
0	7369	23.95	0
0	7370	23.95	0
0	7371	24	0
0	7372	24	0
0	7373	24	0
0	7375	24	0
0	7376	24	0
0	7377	24	0
0	7378	24.05	0
0	7379	24.05	0
0	7380	24.05	0
0	7383	24.1	0
0	7384	24.1	0
0	7385	24.1	0
0	7387	24.1	0
0	7388	24.1	0
0	7389	24.1	0
0	7392	24.15	0
0	7393	24.15	0
0	7394	24.15	0
0	7395	24.2	0
0	7396	24.2	0
0	7397	24.2	0
0	7399	24.2	0
0	7400	24.2	0
0	7401	24.2	0
0	7402	24.25	0
0	7403	24.25	0
0	7404	24.25	0
0	7405	24.3	0
0	7406	24.3	0
0	7407	24.3	0
0	7409	24.3	0
0	7410	24.3	0
0	7411	24.3	0
0	7412	24.35	0
0	7413	24.35	0
0	7414	24.35	0
0	7415	24.4	0
0	7416	24.4	0
0	7417	24.4	0
0	7419	24.4	0
0	7420	24.4	0
0	7421	24.4	0
0	7422	24.45	0
0	7423	24.45	0
0	7424	24.45	0
0	7425	24.5	0
0	7426	24.5	0
0	7427	24.5	0
0	7429	24.5	0
0	7430	24.5	0
0	7431	24.5	0
0	7432	24.55	0
0	7433	24.55	0
0	7434	24.55	0
0	7435	24.6	0
0	7436	24.6	0
0	7437	24.6	0
0	7439	24.6	0
0	7440	24.6	0
0	7441	24.6	0
0	7442	24.65	0
0	7443	24.65	0
0	7444	24.65	0
0	7445	24.7	0
0	7446	24.7	0
0	7447	24.7	0
0	7449	24.7	0
0	7450	24.7	0
0	7451	24.7	0
0	7452	24.75	0
0	7453	24.75	0
0	7454	24.75	0
0	7455	24.8	0
0	7456	24.8	0
0	7457	24.8	0
0	7459	24.8	0
0	7460	24.8	0
0	7461	24.8	0
0	7462	24.85	0
0	7463	24.85	0
0	7464	24.85	0
0	7465	24.9	0
0	7466	24.9	0
0	7467	24.9	0
0	7469	24.9	0
0	7470	24.9	0
0	7471	24.9	0
0	7472	24.95	0
0	7473	24.95	0
0	7474	24.95	0
0	7475	25	0
0	7476	25	0
0	7477	25	0
0	7479	25	0
0	7480	25	0
0	7481	25	0
0	7482	25.05	0
0	7483	25.05	0
0	7484	25.05	0
0	7487	25.1	0
0	7488	25.1	0
0	7489	25.1	0
0	7491	25.1	0
0	7492	25.1	0
0	7493	25.1	0
0	7496	25.15	0
0	7497	25.15	0
0	7498	25.15	0
0	7499	25.2	0
0	7500	25.2	0
0	7501	25.2	0
0	7503	25.2	0
0	7504	25.2	0
0	7505	25.2	0
0	7506	25.25	0
0	7507	25.25	0
0	7508	25.25	0
0	7509	25.3	0
0	7510	25.3	0
0	7511	25.3	0
0	7513	25.3	0
0	7514	25.3	0
0	7515	25.3	0
0	7516	25.35	0
0	7517	25.35	0
0	7518	25.35	0
0	7519	25.4	0
0	7520	25.4	0
0	7521	25.4	0
0	7523	25.4	0
0	7524	25.4	0
0	7525	25.4	0
0	7526	25.45	0
0	7527	25.45	0
0	7528	25.45	0
0	7529	25.5	0
0	7530	25.5	0
0	7531	25.5	0
0	7533	25.5	0
0	7534	25.5	0
0	7535	25.5	0
0	7536	25.55	0
0	7537	25.55	0
0	7538	25.55	0
0	7539	25.6	0
0	7540	25.6	0
0	7541	25.6	0
0	7543	25.6	0
0	7544	25.6	0
0	7545	25.6	0
0	7546	25.65	0
0	7547	25.65	0
0	7548	25.65	0
0	7549	25.7	0
0	7550	25.7	0
0	7551	25.7	0
0	7553	25.7	0
0	7554	25.7	0
0	7555	25.7	0
0	7556	25.75	0
0	7557	25.75	0
0	7558	25.75	0
0	7559	25.8	0
0	7560	25.8	0
0	7561	25.8	0
0	7563	25.8	0
0	7564	25.8	0
0	7565	25.8	0
0	7566	25.85	0
0	7567	25.85	0
0	7568	25.85	0
0	7569	25.9	0
0	7570	25.9	0
0	7571	25.9	0
0	7573	25.9	0
0	7574	25.9	0
0	7575	25.9	0
0	7576	25.95	0
0	7577	25.95	0
0	7578	25.95	0
0	7579	26	0
0	7580	26	0
0	7581	26	0
0	7583	26	0
0	7584	26	0
0	7585	26	0
0	7586	26.05	0
0	7587	26.05	0
0	7588	26.05	0
0	7591	26.1	0
0	7592	26.1	0
0	7593	26.1	0
0	7595	26.1	0
0	7596	26.1	0
0	7597	26.1	0
0	7600	26.15	0
0	7601	26.15	0
0	7602	26.15	0
0	7603	26.2	0
0	7604	26.2	0
0	7605	26.2	0
0	7607	26.2	0
0	7608	26.2	0
0	7609	26.2	0
0	7610	26.25	0
0	7611	26.25	0
0	7612	26.25	0
0	7613	26.3	0
0	7614	26.3	0
0	7615	26.3	0
0	7617	26.3	0
0	7618	26.3	0
0	7619	26.3	0
0	7620	26.35	0
0	7621	26.35	0
0	7622	26.35	0
0	7623	26.4	0
0	7624	26.4	0
0	7625	26.4	0
0	7627	26.4	0
0	7628	26.4	0
0	7629	26.4	0
0	7630	26.45	0
0	7631	26.45	0
0	7632	26.45	0
0	7633	26.5	0
0	7634	26.5	0
0	7635	26.5	0
0	7637	26.5	0
0	7638	26.5	0
0	7639	26.5	0
0	7640	26.55	0
0	7641	26.55	0
0	7642	26.55	0
0	7643	26.6	0
0	7644	26.6	0
0	7645	26.6	0
0	7647	26.6	0
0	7648	26.6	0
0	7649	26.6	0
0	7650	26.65	0
0	7651	26.65	0
0	7652	26.65	0
0	7653	26.7	0
0	7654	26.7	0
0	7655	26.7	0
0	7657	26.7	0
0	7658	26.7	0
0	7659	26.7	0
0	7660	26.75	0
0	7661	26.75	0
0	7662	26.75	0
0	7663	26.8	0
0	7664	26.8	0
0	7665	26.8	0
0	7667	26.8	0
0	7668	26.8	0
0	7669	26.8	0
0	7670	26.85	0
0	7671	26.85	0
0	7672	26.85	0
0	7673	26.9	0
0	7674	26.9	0
0	7675	26.9	0
0	7677	26.9	0
0	7678	26.9	0
0	7679	26.9	0
0	7680	26.95	0
0	7681	26.95	0
0	7682	26.95	0
0	7683	27	0
0	7684	27	0
0	7685	27	0
0	7687	27	0
0	7688	27	0
0	7689	27	0
0	7690	27.05	0
0	7691	27.05	0
0	7692	27.05	0
0	7695	27.1	0
0	7696	27.1	0
0	7697	27.1	0
0	7699	27.1	0
0	7700	27.1	0
0	7701	27.1	0
0	7704	27.15	0
0	7705	27.15	0
0	7706	27.15	0
0	7707	27.2	0
0	7708	27.2	0
0	7709	27.2	0
0	7711	27.2	0
0	7712	27.2	0
0	7713	27.2	0
0	7714	27.25	0
0	7715	27.25	0
0	7716	27.25	0
0	7717	27.3	0
0	7718	27.3	0
0	7719	27.3	0
0	7721	27.3	0
0	7722	27.3	0
0	7723	27.3	0
0	7724	27.35	0
0	7725	27.35	0
0	7726	27.35	0
0	7727	27.4	0
0	7728	27.4	0
0	7729	27.4	0
0	7731	27.4	0
0	7732	27.4	0
0	7733	27.4	0
0	7734	27.45	0
0	7735	27.45	0
0	7736	27.45	0
0	7737	27.5	0
0	7738	27.5	0
0	7739	27.5	0
0	7741	27.5	0
0	7742	27.5	0
0	7743	27.5	0
0	7744	27.55	0
0	7745	27.55	0
0	7746	27.55	0
0	7747	27.6	0
0	7748	27.6	0
0	7749	27.6	0
0	7751	27.6	0
0	7752	27.6	0
0	7753	27.6	0
0	7754	27.65	0
0	7755	27.65	0
0	7756	27.65	0
0	7757	27.7	0
0	7758	27.7	0
0	7759	27.7	0
0	7761	27.7	0
0	7762	27.7	0
0	7763	27.7	0
0	7764	27.75	0
0	7765	27.75	0
0	7766	27.75	0
0	7767	27.8	0
0	7768	27.8	0
0	7769	27.8	0
0	7771	27.8	0
0	7772	27.8	0
0	7773	27.8	0
0	7774	27.85	0
0	7775	27.85	0
0	7776	27.85	0
0	7777	27.9	0
0	7778	27.9	0
0	7779	27.9	0
0	7781	27.9	0
0	7782	27.9	0
0	7783	27.9	0
0	7784	27.95	0
0	7785	27.95	0
0	7786	27.95	0
0	7787	28	0
0	7788	28	0
0	7789	28	0
0	7791	28	0
0	7792	28	0
0	7793	28	0
0	7794	28.05	0
0	7795	28.05	0
0	7796	28.05	0
0	7799	28.1	0
0	7800	28.1	0
0	7801	28.1	0
0	7803	28.1	0
0	7804	28.1	0
0	7805	28.1	0
0	7808	28.15	0
0	7809	28.15	0
0	7810	28.15	0
0	7811	28.2	0
0	7812	28.2	0
0	7813	28.2	0
0	7815	28.2	0
0	7816	28.2	0
0	7817	28.2	0
0	7818	28.25	0
0	7819	28.25	0
0	7820	28.25	0
0	7821	28.3	0
0	7822	28.3	0
0	7823	28.3	0
0	7825	28.3	0
0	7826	28.3	0
0	7827	28.3	0
0	7828	28.35	0
0	7829	28.35	0
0	7830	28.35	0
0	7831	28.4	0
0	7832	28.4	0
0	7833	28.4	0
0	7835	28.4	0
0	7836	28.4	0
0	7837	28.4	0
0	7838	28.45	0
0	7839	28.45	0
0	7840	28.45	0
0	7841	28.5	0
0	7842	28.5	0
0	7843	28.5	0
0	7845	28.5	0
0	7846	28.5	0
0	7847	28.5	0
0	7848	28.55	0
0	7849	28.55	0
0	7850	28.55	0
0	7851	28.6	0
0	7852	28.6	0
0	7853	28.6	0
0	7855	28.6	0
0	7856	28.6	0
0	7857	28.6	0
0	7858	28.65	0
0	7859	28.65	0
0	7860	28.65	0
0	7861	28.7	0
0	7862	28.7	0
0	7863	28.7	0
0	7865	28.7	0
0	7866	28.7	0
0	7867	28.7	0
0	7868	28.75	0
0	7869	28.75	0
0	7870	28.75	0
0	7871	28.8	0
0	7872	28.8	0
0	7873	28.8	0
0	7875	28.8	0
0	7876	28.8	0
0	7877	28.8	0
0	7878	28.85	0
0	7879	28.85	0
0	7880	28.85	0
0	7881	28.9	0
0	7882	28.9	0
0	7883	28.9	0
0	7885	28.9	0
0	7886	28.9	0
0	7887	28.9	0
0	7888	28.95	0
0	7889	28.95	0
0	7890	28.95	0
0	7891	29	0
0	7892	29	0
0	7893	29	0
0	7895	29	0
0	7896	29	0
0	7897	29	0
0	7898	29.05	0
0	7899	29.05	0
0	7900	29.05	0
0	7903	29.1	0
0	7904	29.1	0
0	7905	29.1	0
0	7907	29.1	0
0	7908	29.1	0
0	7909	29.1	0
0	7912	29.15	0
0	7913	29.15	0
0	7914	29.15	0
0	7915	29.2	0
0	7916	29.2	0
0	7917	29.2	0
0	7919	29.2	0
0	7920	29.2	0
0	7921	29.2	0
0	7922	29.25	0
0	7923	29.25	0
0	7924	29.25	0
0	7925	29.3	0
0	7926	29.3	0
0	7927	29.3	0
0	7929	29.3	0
0	7930	29.3	0
0	7931	29.3	0
0	7932	29.35	0
0	7933	29.35	0
0	7934	29.35	0
0	7935	29.4	0
0	7936	29.4	0
0	7937	29.4	0
0	7939	29.4	0
0	7940	29.4	0
0	7941	29.4	0
0	7942	29.45	0
0	7943	29.45	0
0	7944	29.45	0
0	7945	29.5	0
0	7946	29.5	0
0	7947	29.5	0
0	7949	29.5	0
0	7950	29.5	0
0	7951	29.5	0
0	7952	29.55	0
0	7953	29.55	0
0	7954	29.55	0
0	7955	29.6	0
0	7956	29.6	0
0	7957	29.6	0
0	7959	29.6	0
0	7960	29.6	0
0	7961	29.6	0
0	7962	29.65	0
0	7963	29.65	0
0	7964	29.65	0
0	7965	29.7	0
0	7966	29.7	0
0	7967	29.7	0
0	7969	29.7	0
0	7970	29.7	0
0	7971	29.7	0
0	7972	29.75	0
0	7973	29.75	0
0	7974	29.75	0
0	7975	29.8	0
0	7976	29.8	0
0	7977	29.8	0
0	7979	29.8	0
0	7980	29.8	0
0	7981	29.8	0
0	7982	29.85	0
0	7983	29.85	0
0	7984	29.85	0
0	7985	29.9	0
0	7986	29.9	0
0	7987	29.9	0
0	7989	29.9	0
0	7990	29.9	0
0	7991	29.9	0
0	7992	29.95	0
0	7993	29.95	0
0	7994	29.95	0
0	7995	30	0
0	7996	30	0
0	7997	30	0
0	7999	30	0
0	8000	30	0
0	8001	30	0
0	8002	30.05	0
0	8003	30.05	0
0	8004	30.05	0
0	8007	30.1	0
0	8008	30.1	0
0	8009	30.1	0
0	8011	30.1	0
0	8012	30.1	0
0	8013	30.1	0
0	8016	30.15	0
0	8017	30.15	0
0	8018	30.15	0
0	8019	30.2	0
0	8020	30.2	0
0	8021	30.2	0
0	8023	30.2	0
0	8024	30.2	0
0	8025	30.2	0
0	8026	30.25	0
0	8027	30.25	0
0	8028	30.25	0
0	8029	30.3	0
0	8030	30.3	0
0	8031	30.3	0
0	8033	30.3	0
0	8034	30.3	0
0	8035	30.3	0
0	8036	30.35	0
0	8037	30.35	0
0	8038	30.35	0
0	8039	30.4	0
0	8040	30.4	0
0	8041	30.4	0
0	8043	30.4	0
0	8044	30.4	0
0	8045	30.4	0
0	8046	30.45	0
0	8047	30.45	0
0	8048	30.45	0
0	8049	30.5	0
0	8050	30.5	0
0	8051	30.5	0
0	8053	30.5	0
0	8054	30.5	0
0	8055	30.5	0
0	8056	30.55	0
0	8057	30.55	0
0	8058	30.55	0
0	8059	30.6	0
0	8060	30.6	0
0	8061	30.6	0
0	8063	30.6	0
0	8064	30.6	0
0	8065	30.6	0
0	8066	30.65	0
0	8067	30.65	0
0	8068	30.65	0
0	8069	30.7	0
0	8070	30.7	0
0	8071	30.7	0
0	8073	30.7	0
0	8074	30.7	0
0	8075	30.7	0
0	8076	30.75	0
0	8077	30.75	0
0	8078	30.75	0
0	8079	30.8	0
0	8080	30.8	0
0	8081	30.8	0
0	8083	30.8	0
0	8084	30.8	0
0	8085	30.8	0
0	8086	30.85	0
0	8087	30.85	0
0	8088	30.85	0
0	8089	30.9	0
0	8090	30.9	0
0	8091	30.9	0
0	8093	30.9	0
0	8094	30.9	0
0	8095	30.9	0
0	8096	30.95	0
0	8097	30.95	0
0	8098	30.95	0
0	8099	31	0
0	8100	31	0
0	8101	31	0
0	8103	31	0
0	8104	31	0
0	8105	31	0
0	8106	31.05	0
0	8107	31.05	0
0	8108	31.05	0
0	8111	31.1	0
0	8112	31.1	0
0	8113	31.1	0
0	8115	31.1	0
0	8116	31.1	0
0	8117	31.1	0
0	8120	31.15	0
0	8121	31.15	0
0	8122	31.15	0
0	8123	31.2	0
0	8124	31.2	0
0	8125	31.2	0
0	8127	31.2	0
0	8128	31.2	0
0	8129	31.2	0
0	8130	31.25	0
0	8131	31.25	0
0	8132	31.25	0
0	8133	31.3	0
0	8134	31.3	0
0	8135	31.3	0
0	8137	31.3	0
0	8138	31.3	0
0	8139	31.3	0
0	8140	31.35	0
0	8141	31.35	0
0	8142	31.35	0
0	8143	31.4	0
0	8144	31.4	0
0	8145	31.4	0
0	8147	31.4	0
0	8148	31.4	0
0	8149	31.4	0
0	8150	31.45	0
0	8151	31.45	0
0	8152	31.45	0
0	8153	31.5	0
0	8154	31.5	0
0	8155	31.5	0
0	8157	31.5	0
0	8158	31.5	0
0	8159	31.5	0
0	8160	31.55	0
0	8161	31.55	0
0	8162	31.55	0
0	8163	31.6	0
0	8164	31.6	0
0	8165	31.6	0
0	8167	31.6	0
0	8168	31.6	0
0	8169	31.6	0
0	8170	31.65	0
0	8171	31.65	0
0	8172	31.65	0
0	8173	31.7	0
0	8174	31.7	0
0	8175	31.7	0
0	8177	31.7	0
0	8178	31.7	0
0	8179	31.7	0
0	8180	31.75	0
0	8181	31.75	0
0	8182	31.75	0
0	8183	31.8	0
0	8184	31.8	0
0	8185	31.8	0
0	8187	31.8	0
0	8188	31.8	0
0	8189	31.8	0
0	8190	31.85	0
0	8191	31.85	0
0	8192	31.85	0
0	8193	31.9	0
0	8194	31.9	0
0	8195	31.9	0
0	8197	31.9	0
0	8198	31.9	0
0	8199	31.9	0
0	8200	31.95	0
0	8201	31.95	0
0	8202	31.95	0
0	8203	32	0
0	8204	32	0
0	8205	32	0
0	8207	32	0
0	8208	32	0
0	8209	32	0
0	8210	32.05	0
0	8211	32.05	0
0	8212	32.05	0
0	8215	32.1	0
0	8216	32.1	0
0	8217	32.1	0
0	8219	32.1	0
0	8220	32.1	0
0	8221	32.1	0
0	8224	32.15	0
0	8225	32.15	0
0	8226	32.15	0
0	8227	32.2	0
0	8228	32.2	0
0	8229	32.2	0
0	8231	32.2	0
0	8232	32.2	0
0	8233	32.2	0
0	8234	32.25	0
0	8235	32.25	0
0	8236	32.25	0
0	8237	32.3	0
0	8238	32.3	0
0	8239	32.3	0
0	8241	32.3	0
0	8242	32.3	0
0	8243	32.3	0
0	8244	32.35	0
0	8245	32.35	0
0	8246	32.35	0
0	8247	32.4	0
0	8248	32.4	0
0	8249	32.4	0
0	8251	32.4	0
0	8252	32.4	0
0	8253	32.4	0
0	8254	32.45	0
0	8255	32.45	0
0	8256	32.45	0
0	8257	32.5	0
0	8258	32.5	0
0	8259	32.5	0
0	8261	32.5	0
0	8262	32.5	0
0	8263	32.5	0
0	8264	32.55	0
0	8265	32.55	0
0	8266	32.55	0
0	8267	32.6	0
0	8268	32.6	0
0	8269	32.6	0
0	8271	32.6	0
0	8272	32.6	0
0	8273	32.6	0
0	8274	32.65	0
0	8275	32.65	0
0	8276	32.65	0
0	8277	32.7	0
0	8278	32.7	0
0	8279	32.7	0
0	8281	32.7	0
0	8282	32.7	0
0	8283	32.7	0
0	8284	32.75	0
0	8285	32.75	0
0	8286	32.75	0
0	8287	32.8	0
0	8288	32.8	0
0	8289	32.8	0
0	8291	32.8	0
0	8292	32.8	0
0	8293	32.8	0
0	8294	32.85	0
0	8295	32.85	0
0	8296	32.85	0
0	8297	32.9	0
0	8298	32.9	0
0	8299	32.9	0
0	8301	32.9	0
0	8302	32.9	0
0	8303	32.9	0
0	8304	32.95	0
0	8305	32.95	0
0	8306	32.95	0
0	8307	33	0
0	8308	33	0
0	8309	33	0
0	8311	33	0
0	8312	33	0
0	8313	33	0
0	8314	33.05	0
0	8315	33.05	0
0	8316	33.05	0
0	8319	33.1	0
0	8320	33.1	0
0	8321	33.1	0
0	8323	33.1	0
0	8324	33.1	0
0	8325	33.1	0
0	8328	33.15	0
0	8329	33.15	0
0	8330	33.15	0
0	8331	33.2	0
0	8332	33.2	0
0	8333	33.2	0
0	8335	33.2	0
0	8336	33.2	0
0	8337	33.2	0
0	8338	33.25	0
0	8339	33.25	0
0	8340	33.25	0
0	8341	33.3	0
0	8342	33.3	0
0	8343	33.3	0
0	8345	33.3	0
0	8346	33.3	0
0	8347	33.3	0
0	8348	33.35	0
0	8349	33.35	0
0	8350	33.35	0
0	8351	33.4	0
0	8352	33.4	0
0	8353	33.4	0
0	8355	33.4	0
0	8356	33.4	0
0	8357	33.4	0
0	8358	33.45	0
0	8359	33.45	0
0	8360	33.45	0
0	8361	33.5	0
0	8362	33.5	0
0	8363	33.5	0
0	8365	33.5	0
0	8366	33.5	0
0	8367	33.5	0
0	8368	33.55	0
0	8369	33.55	0
0	8370	33.55	0
0	8371	33.6	0
0	8372	33.6	0
0	8373	33.6	0
0	8375	33.6	0
0	8376	33.6	0
0	8377	33.6	0
0	8378	33.65	0
0	8379	33.65	0
0	8380	33.65	0
0	8381	33.7	0
0	8382	33.7	0
0	8383	33.7	0
0	8385	33.7	0
0	8386	33.7	0
0	8387	33.7	0
0	8388	33.75	0
0	8389	33.75	0
0	8390	33.75	0
0	8391	33.8	0
0	8392	33.8	0
0	8393	33.8	0
0	8395	33.8	0
0	8396	33.8	0
0	8397	33.8	0
0	8398	33.85	0
0	8399	33.85	0
0	8400	33.85	0
0	8401	33.9	0
0	8402	33.9	0
0	8403	33.9	0
0	8405	33.9	0
0	8406	33.9	0
0	8407	33.9	0
0	8408	33.95	0
0	8409	33.95	0
0	8410	33.95	0
0	8411	34	0
0	8412	34	0
0	8413	34	0
0	8415	34	0
0	8416	34	0
0	8417	34	0
0	8418	34.05	0
0	8419	34.05	0
0	8420	34.05	0
0	8423	34.1	0
0	8424	34.1	0
0	8425	34.1	0
0	8427	34.1	0
0	8428	34.1	0
0	8429	34.1	0
0	8432	34.15	0
0	8433	34.15	0
0	8434	34.15	0
0	8435	34.2	0
0	8436	34.2	0
0	8437	34.2	0
0	8439	34.2	0
0	8440	34.2	0
0	8441	34.2	0
0	8442	34.25	0
0	8443	34.25	0
0	8444	34.25	0
0	8445	34.3	0
0	8446	34.3	0
0	8447	34.3	0
0	8449	34.3	0
0	8450	34.3	0
0	8451	34.3	0
0	8452	34.35	0
0	8453	34.35	0
0	8454	34.35	0
0	8455	34.4	0
0	8456	34.4	0
0	8457	34.4	0
0	8459	34.4	0
0	8460	34.4	0
0	8461	34.4	0
0	8462	34.45	0
0	8463	34.45	0
0	8464	34.45	0
0	8465	34.5	0
0	8466	34.5	0
0	8467	34.5	0
0	8469	34.5	0
0	8470	34.5	0
0	8471	34.5	0
0	8472	34.55	0
0	8473	34.55	0
0	8474	34.55	0
0	8475	34.6	0
0	8476	34.6	0
0	8477	34.6	0
0	8479	34.6	0
0	8480	34.6	0
0	8481	34.6	0
0	8482	34.65	0
0	8483	34.65	0
0	8484	34.65	0
0	8485	34.7	0
0	8486	34.7	0
0	8487	34.7	0
0	8489	34.7	0
0	8490	34.7	0
0	8491	34.7	0
0	8492	34.75	0
0	8493	34.75	0
0	8494	34.75	0
0	8495	34.8	0
0	8496	34.8	0
0	8497	34.8	0
0	8499	34.8	0
0	8500	34.8	0
0	8501	34.8	0
0	8502	34.85	0
0	8503	34.85	0
0	8504	34.85	0
0	8505	34.9	0
0	8506	34.9	0
0	8507	34.9	0
0	8509	34.9	0
0	8510	34.9	0
0	8511	34.9	0
0	8512	34.95	0
0	8513	34.95	0
0	8514	34.95	0
0	8515	35	0
0	8516	35	0
0	8517	35	0
0	8519	35	0
0	8520	35	0
0	8521	35	0
0	8522	35.05	0
0	8523	35.05	0
0	8524	35.05	0
0	8527	35.1	0
0	8528	35.1	0
0	8529	35.1	0
0	8531	35.1	0
0	8532	35.1	0
0	8533	35.1	0
0	8536	35.15	0
0	8537	35.15	0
0	8538	35.15	0
0	8539	35.2	0
0	8540	35.2	0
0	8541	35.2	0
0	8543	35.2	0
0	8544	35.2	0
0	8545	35.2	0
0	8546	35.25	0
0	8547	35.25	0
0	8548	35.25	0
0	8549	35.3	0
0	8550	35.3	0
0	8551	35.3	0
0	8553	35.3	0
0	8554	35.3	0
0	8555	35.3	0
0	8556	35.35	0
0	8557	35.35	0
0	8558	35.35	0
0	8559	35.4	0
0	8560	35.4	0
0	8561	35.4	0
0	8563	35.4	0
0	8564	35.4	0
0	8565	35.4	0
0	8566	35.45	0
0	8567	35.45	0
0	8568	35.45	0
0	8569	35.5	0
0	8570	35.5	0
0	8571	35.5	0
0	8573	35.5	0
0	8574	35.5	0
0	8575	35.5	0
0	8576	35.55	0
0	8577	35.55	0
0	8578	35.55	0
0	8579	35.6	0
0	8580	35.6	0
0	8581	35.6	0
0	8583	35.6	0
0	8584	35.6	0
0	8585	35.6	0
0	8586	35.65	0
0	8587	35.65	0
0	8588	35.65	0
0	8589	35.7	0
0	8590	35.7	0
0	8591	35.7	0
0	8593	35.7	0
0	8594	35.7	0
0	8595	35.7	0
0	8596	35.75	0
0	8597	35.75	0
0	8598	35.75	0
0	8599	35.8	0
0	8600	35.8	0
0	8601	35.8	0
0	8603	35.8	0
0	8604	35.8	0
0	8605	35.8	0
0	8606	35.85	0
0	8607	35.85	0
0	8608	35.85	0
0	8609	35.9	0
0	8610	35.9	0
0	8611	35.9	0
0	8613	35.9	0
0	8614	35.9	0
0	8615	35.9	0
0	8616	35.95	0
0	8617	35.95	0
0	8618	35.95	0
0	8619	36	0
0	8620	36	0
0	8621	36	0
0	8623	36	0
0	8624	36	0
0	8625	36	0
0	8626	36.05	0
0	8627	36.05	0
0	8628	36.05	0
0	8631	36.1	0
0	8632	36.1	0
0	8633	36.1	0
0	8635	36.1	0
0	8636	36.1	0
0	8637	36.1	0
0	8640	36.15	0
0	8641	36.15	0
0	8642	36.15	0
0	8643	36.2	0
0	8644	36.2	0
0	8645	36.2	0
0	8647	36.2	0
0	8648	36.2	0
0	8649	36.2	0
0	8650	36.25	0
0	8651	36.25	0
0	8652	36.25	0
0	8653	36.3	0
0	8654	36.3	0
0	8655	36.3	0
0	8657	36.3	0
0	8658	36.3	0
0	8659	36.3	0
0	8660	36.35	0
0	8661	36.35	0
0	8662	36.35	0
0	8663	36.4	0
0	8664	36.4	0
0	8665	36.4	0
0	8667	36.4	0
0	8668	36.4	0
0	8669	36.4	0
0	8670	36.45	0
0	8671	36.45	0
0	8672	36.45	0
0	8673	36.5	0
0	8674	36.5	0
0	8675	36.5	0
0	8677	36.5	0
0	8678	36.5	0
0	8679	36.5	0
0	8680	36.55	0
0	8681	36.55	0
0	8682	36.55	0
0	8683	36.6	0
0	8684	36.6	0
0	8685	36.6	0
0	8687	36.6	0
0	8688	36.6	0
0	8689	36.6	0
0	8690	36.65	0
0	8691	36.65	0
0	8692	36.65	0
0	8693	36.7	0
0	8694	36.7	0
0	8695	36.7	0
0	8697	36.7	0
0	8698	36.7	0
0	8699	36.7	0
0	8700	36.75	0
0	8701	36.75	0
0	8702	36.75	0
0	8703	36.8	0
0	8704	36.8	0
0	8705	36.8	0
0	8707	36.8	0
0	8708	36.8	0
0	8709	36.8	0
0	8710	36.85	0
0	8711	36.85	0
0	8712	36.85	0
0	8713	36.9	0
0	8714	36.9	0
0	8715	36.9	0
0	8717	36.9	0
0	8718	36.9	0
0	8719	36.9	0
0	8720	36.95	0
0	8721	36.95	0
0	8722	36.95	0
0	8723	37	0
0	8724	37	0
0	8725	37	0
0	8727	37	0
0	8728	37	0
0	8729	37	0
0	8730	37.05	0
0	8731	37.05	0
0	8732	37.05	0
0	8735	37.1	0
0	8736	37.1	0
0	8737	37.1	0
0	8739	37.1	0
0	8740	37.1	0
0	8741	37.1	0
0	8744	37.15	0
0	8745	37.15	0
0	8746	37.15	0
0	8747	37.2	0
0	8748	37.2	0
0	8749	37.2	0
0	8751	37.2	0
0	8752	37.2	0
0	8753	37.2	0
0	8754	37.25	0
0	8755	37.25	0
0	8756	37.25	0
0	8757	37.3	0
0	8758	37.3	0
0	8759	37.3	0
0	8761	37.3	0
0	8762	37.3	0
0	8763	37.3	0
0	8764	37.35	0
0	8765	37.35	0
0	8766	37.35	0
0	8767	37.4	0
0	8768	37.4	0
0	8769	37.4	0
0	8771	37.4	0
0	8772	37.4	0
0	8773	37.4	0
0	8774	37.45	0
0	8775	37.45	0
0	8776	37.45	0
0	8777	37.5	0
0	8778	37.5	0
0	8779	37.5	0
0	8781	37.5	0
0	8782	37.5	0
0	8783	37.5	0
0	8784	37.55	0
0	8785	37.55	0
0	8786	37.55	0
0	8787	37.6	0
0	8788	37.6	0
0	8789	37.6	0
0	8791	37.6	0
0	8792	37.6	0
0	8793	37.6	0
0	8794	37.65	0
0	8795	37.65	0
0	8796	37.65	0
0	8797	37.7	0
0	8798	37.7	0
0	8799	37.7	0
0	8801	37.7	0
0	8802	37.7	0
0	8803	37.7	0
0	8804	37.75	0
0	8805	37.75	0
0	8806	37.75	0
0	8807	37.8	0
0	8808	37.8	0
0	8809	37.8	0
0	8811	37.8	0
0	8812	37.8	0
0	8813	37.8	0
0	8814	37.85	0
0	8815	37.85	0
0	8816	37.85	0
0	8817	37.9	0
0	8818	37.9	0
0	8819	37.9	0
0	8821	37.9	0
0	8822	37.9	0
0	8823	37.9	0
0	8824	37.95	0
0	8825	37.95	0
0	8826	37.95	0
0	8827	38	0
0	8828	38	0
0	8829	38	0
0	8831	38	0
0	8832	38	0
0	8833	38	0
0	8834	38.05	0
0	8835	38.05	0
0	8836	38.05	0
0	8839	38.1	0
0	8840	38.1	0
0	8841	38.1	0
0	8843	38.1	0
0	8844	38.1	0
0	8845	38.1	0
0	8848	38.15	0
0	8849	38.15	0
0	8850	38.15	0
0	8851	38.2	0
0	8852	38.2	0
0	8853	38.2	0
0	8855	38.2	0
0	8856	38.2	0
0	8857	38.2	0
0	8858	38.25	0
0	8859	38.25	0
0	8860	38.25	0
0	8861	38.3	0
0	8862	38.3	0
0	8863	38.3	0
0	8865	38.3	0
0	8866	38.3	0
0	8867	38.3	0
0	8868	38.35	0
0	8869	38.35	0
0	8870	38.35	0
0	8871	38.4	0
0	8872	38.4	0
0	8873	38.4	0
0	8875	38.4	0
0	8876	38.4	0
0	8877	38.4	0
0	8878	38.45	0
0	8879	38.45	0
0	8880	38.45	0
0	8881	38.5	0
0	8882	38.5	0
0	8883	38.5	0
0	8885	38.5	0
0	8886	38.5	0
0	8887	38.5	0
0	8888	38.55	0
0	8889	38.55	0
0	8890	38.55	0
0	8891	38.6	0
0	8892	38.6	0
0	8893	38.6	0
0	8895	38.6	0
0	8896	38.6	0
0	8897	38.6	0
0	8898	38.65	0
0	8899	38.65	0
0	8900	38.65	0
0	8901	38.7	0
0	8902	38.7	0
0	8903	38.7	0
0	8905	38.7	0
0	8906	38.7	0
0	8907	38.7	0
0	8908	38.75	0
0	8909	38.75	0
0	8910	38.75	0
0	8911	38.8	0
0	8912	38.8	0
0	8913	38.8	0
0	8915	38.8	0
0	8916	38.8	0
0	8917	38.8	0
0	8918	38.85	0
0	8919	38.85	0
0	8920	38.85	0
0	8921	38.9	0
0	8922	38.9	0
0	8923	38.9	0
0	8925	38.9	0
0	8926	38.9	0
0	8927	38.9	0
0	8928	38.95	0
0	8929	38.95	0
0	8930	38.95	0
0	8931	39	0
0	8932	39	0
0	8933	39	0
0	8935	39	0
0	8936	39	0
0	8937	39	0
0	8938	39.05	0
0	8939	39.05	0
0	8940	39.05	0
0	8943	39.1	0
0	8944	39.1	0
0	8945	39.1	0
0	8947	39.1	0
0	8948	39.1	0
0	8949	39.1	0
0	8952	39.15	0
0	8953	39.15	0
0	8954	39.15	0
0	8955	39.2	0
0	8956	39.2	0
0	8957	39.2	0
0	8959	39.2	0
0	8960	39.2	0
0	8961	39.2	0
0	8962	39.25	0
0	8963	39.25	0
0	8964	39.25	0
0	8965	39.3	0
0	8966	39.3	0
0	8967	39.3	0
0	8969	39.3	0
0	8970	39.3	0
0	8971	39.3	0
0	8972	39.35	0
0	8973	39.35	0
0	8974	39.35	0
0	8975	39.4	0
0	8976	39.4	0
0	8977	39.4	0
0	8979	39.4	0
0	8980	39.4	0
0	8981	39.4	0
0	8982	39.45	0
0	8983	39.45	0
0	8984	39.45	0
0	8985	39.5	0
0	8986	39.5	0
0	8987	39.5	0
0	8989	39.5	0
0	8990	39.5	0
0	8991	39.5	0
0	8992	39.55	0
0	8993	39.55	0
0	8994	39.55	0
0	8995	39.6	0
0	8996	39.6	0
0	8997	39.6	0
0	8999	39.6	0
0	9000	39.6	0
0	9001	39.6	0
0	9002	39.65	0
0	9003	39.65	0
0	9004	39.65	0
0	9005	39.7	0
0	9006	39.7	0
0	9007	39.7	0
0	9009	39.7	0
0	9010	39.7	0
0	9011	39.7	0
0	9012	39.75	0
0	9013	39.75	0
0	9014	39.75	0
0	9015	39.8	0
0	9016	39.8	0
0	9017	39.8	0
0	9019	39.8	0
0	9020	39.8	0
0	9021	39.8	0
0	9022	39.85	0
0	9023	39.85	0
0	9024	39.85	0
0	9025	39.9	0
0	9026	39.9	0
0	9027	39.9	0
0	9029	39.9	0
0	9030	39.9	0
0	9031	39.9	0
0	9032	39.95	0
0	9033	39.95	0
0	9034	39.95	0
0	9035	40	0
0	9036	40	0
0	9037	40	0
0	9039	40	0
0	9040	40	0
0	9041	40	0
0	9042	40.05	0
0	9043	40.05	0
0	9044	40.05	0
0	9047	40.1	0
0	9048	40.1	0
0	9049	40.1	0
0	9051	40.1	0
0	9052	40.1	0
0	9053	40.1	0
0	9056	40.15	0
0	9057	40.15	0
0	9058	40.15	0
0	9059	40.2	0
0	9060	40.2	0
0	9061	40.2	0
0	9063	40.2	0
0	9064	40.2	0
0	9065	40.2	0
0	9066	40.25	0
0	9067	40.25	0
0	9068	40.25	0
0	9069	40.3	0
0	9070	40.3	0
0	9071	40.3	0
0	9073	40.3	0
0	9074	40.3	0
0	9075	40.3	0
0	9076	40.35	0
0	9077	40.35	0
0	9078	40.35	0
0	9079	40.4	0
0	9080	40.4	0
0	9081	40.4	0
0	9083	40.4	0
0	9084	40.4	0
0	9085	40.4	0
0	9086	40.45	0
0	9087	40.45	0
0	9088	40.45	0
0	9089	40.5	0
0	9090	40.5	0
0	9091	40.5	0
0	9093	40.5	0
0	9094	40.5	0
0	9095	40.5	0
0	9096	40.55	0
0	9097	40.55	0
0	9098	40.55	0
0	9099	40.6	0
0	9100	40.6	0
0	9101	40.6	0
0	9103	40.6	0
0	9104	40.6	0
0	9105	40.6	0
0	9106	40.65	0
0	9107	40.65	0
0	9108	40.65	0
0	9109	40.7	0
0	9110	40.7	0
0	9111	40.7	0
0	9113	40.7	0
0	9114	40.7	0
0	9115	40.7	0
0	9116	40.75	0
0	9117	40.75	0
0	9118	40.75	0
0	9119	40.8	0
0	9120	40.8	0
0	9121	40.8	0
0	9123	40.8	0
0	9124	40.8	0
0	9125	40.8	0
0	9126	40.85	0
0	9127	40.85	0
0	9128	40.85	0
0	9129	40.9	0
0	9130	40.9	0
0	9131	40.9	0
0	9133	40.9	0
0	9134	40.9	0
0	9135	40.9	0
0	9136	40.95	0
0	9137	40.95	0
0	9138	40.95	0
0	9139	41	0
0	9140	41	0
0	9141	41	0
0	9143	41	0
0	9144	41	0
0	9145	41	0
0	9146	41.05	0
0	9147	41.05	0
0	9148	41.05	0
0	9151	41.1	0
0	9152	41.1	0
0	9153	41.1	0
0	9155	41.1	0
0	9156	41.1	0
0	9157	41.1	0
0	9160	41.15	0
0	9161	41.15	0
0	9162	41.15	0
0	9163	41.2	0
0	9164	41.2	0
0	9165	41.2	0
0	9167	41.2	0
0	9168	41.2	0
0	9169	41.2	0
0	9170	41.25	0
0	9171	41.25	0
0	9172	41.25	0
0	9173	41.3	0
0	9174	41.3	0
0	9175	41.3	0
0	9177	41.3	0
0	9178	41.3	0
0	9179	41.3	0
0	9180	41.35	0
0	9181	41.35	0
0	9182	41.35	0
0	9183	41.4	0
0	9184	41.4	0
0	9185	41.4	0
0	9187	41.4	0
0	9188	41.4	0
0	9189	41.4	0
0	9190	41.45	0
0	9191	41.45	0
0	9192	41.45	0
0	9193	41.5	0
0	9194	41.5	0
0	9195	41.5	0
0	9197	41.5	0
0	9198	41.5	0
0	9199	41.5	0
0	9200	41.55	0
0	9201	41.55	0
0	9202	41.55	0
0	9203	41.6	0
0	9204	41.6	0
0	9205	41.6	0
0	9207	41.6	0
0	9208	41.6	0
0	9209	41.6	0
0	9210	41.65	0
0	9211	41.65	0
0	9212	41.65	0
0	9213	41.7	0
0	9214	41.7	0
0	9215	41.7	0
0	9217	41.7	0
0	9218	41.7	0
0	9219	41.7	0
0	9220	41.75	0
0	9221	41.75	0
0	9222	41.75	0
0	9223	41.8	0
0	9224	41.8	0
0	9225	41.8	0
0	9227	41.8	0
0	9228	41.8	0
0	9229	41.8	0
0	9230	41.85	0
0	9231	41.85	0
0	9232	41.85	0
0	9233	41.9	0
0	9234	41.9	0
0	9235	41.9	0
0	9237	41.9	0
0	9238	41.9	0
0	9239	41.9	0
0	9240	41.95	0
0	9241	41.95	0
0	9242	41.95	0
0	9243	42	0
0	9244	42	0
0	9245	42	0
0	9247	42	0
0	9248	42	0
0	9249	42	0
0	9250	42.05	0
0	9251	42.05	0
0	9252	42.05	0
0	9255	42.1	0
0	9256	42.1	0
0	9257	42.1	0
0	9259	42.1	0
0	9260	42.1	0
0	9261	42.1	0
0	9264	42.15	0
0	9265	42.15	0
0	9266	42.15	0
0	9267	42.2	0
0	9268	42.2	0
0	9269	42.2	0
0	9271	42.2	0
0	9272	42.2	0
0	9273	42.2	0
0	9274	42.25	0
0	9275	42.25	0
0	9276	42.25	0
0	9277	42.3	0
0	9278	42.3	0
0	9279	42.3	0
0	9281	42.3	0
0	9282	42.3	0
0	9283	42.3	0
0	9284	42.35	0
0	9285	42.35	0
0	9286	42.35	0
0	9287	42.4	0
0	9288	42.4	0
0	9289	42.4	0
0	9291	42.4	0
0	9292	42.4	0
0	9293	42.4	0
0	9294	42.45	0
0	9295	42.45	0
0	9296	42.45	0
0	9297	42.5	0
0	9298	42.5	0
0	9299	42.5	0
0	9301	42.5	0
0	9302	42.5	0
0	9303	42.5	0
0	9304	42.55	0
0	9305	42.55	0
0	9306	42.55	0
0	9307	42.6	0
0	9308	42.6	0
0	9309	42.6	0
0	9311	42.6	0
0	9312	42.6	0
0	9313	42.6	0
0	9314	42.65	0
0	9315	42.65	0
0	9316	42.65	0
0	9317	42.7	0
0	9318	42.7	0
0	9319	42.7	0
0	9321	42.7	0
0	9322	42.7	0
0	9323	42.7	0
0	9324	42.75	0
0	9325	42.75	0
0	9326	42.75	0
0	9327	42.8	0
0	9328	42.8	0
0	9329	42.8	0
0	9331	42.8	0
0	9332	42.8	0
0	9333	42.8	0
0	9334	42.85	0
0	9335	42.85	0
0	9336	42.85	0
0	9337	42.9	0
0	9338	42.9	0
0	9339	42.9	0
0	9341	42.9	0
0	9342	42.9	0
0	9343	42.9	0
0	9344	42.95	0
0	9345	42.95	0
0	9346	42.95	0
0	9347	43	0
0	9348	43	0
0	9349	43	0
0	9351	43	0
0	9352	43	0
0	9353	43	0
0	9354	43.05	0
0	9355	43.05	0
0	9356	43.05	0
0	9359	43.1	0
0	9360	43.1	0
0	9361	43.1	0
0	9363	43.1	0
0	9364	43.1	0
0	9365	43.1	0
0	9368	43.15	0
0	9369	43.15	0
0	9370	43.15	0
0	9371	43.2	0
0	9372	43.2	0
0	9373	43.2	0
0	9375	43.2	0
0	9376	43.2	0
0	9377	43.2	0
0	9378	43.25	0
0	9379	43.25	0
0	9380	43.25	0
0	9381	43.3	0
0	9382	43.3	0
0	9383	43.3	0
0	9385	43.3	0
0	9386	43.3	0
0	9387	43.3	0
0	9388	43.35	0
0	9389	43.35	0
0	9390	43.35	0
0	9391	43.4	0
0	9392	43.4	0
0	9393	43.4	0
0	9395	43.4	0
0	9396	43.4	0
0	9397	43.4	0
0	9398	43.45	0
0	9399	43.45	0
0	9400	43.45	0
0	9401	43.5	0
0	9402	43.5	0
0	9403	43.5	0
0	9405	43.5	0
0	9406	43.5	0
0	9407	43.5	0
0	9408	43.55	0
0	9409	43.55	0
0	9410	43.55	0
0	9411	43.6	0
0	9412	43.6	0
0	9413	43.6	0
0	9415	43.6	0
0	9416	43.6	0
0	9417	43.6	0
0	9418	43.65	0
0	9419	43.65	0
0	9420	43.65	0
0	9421	43.7	0
0	9422	43.7	0
0	9423	43.7	0
0	9425	43.7	0
0	9426	43.7	0
0	9427	43.7	0
0	9428	43.75	0
0	9429	43.75	0
0	9430	43.75	0
0	9431	43.8	0
0	9432	43.8	0
0	9433	43.8	0
0	9435	43.8	0
0	9436	43.8	0
0	9437	43.8	0
0	9438	43.85	0
0	9439	43.85	0
0	9440	43.85	0
0	9441	43.9	0
0	9442	43.9	0
0	9443	43.9	0
0	9445	43.9	0
0	9446	43.9	0
0	9447	43.9	0
0	9448	43.95	0
0	9449	43.95	0
0	9450	43.95	0
0	9451	44	0
0	9452	44	0
0	9453	44	0
0	9455	44	0
0	9456	44	0
0	9457	44	0
0	9458	44.05	0
0	9459	44.05	0
0	9460	44.05	0
0	9463	44.1	0
0	9464	44.1	0
0	9465	44.1	0
0	9467	44.1	0
0	9468	44.1	0
0	9469	44.1	0
0	9472	44.15	0
0	9473	44.15	0
0	9474	44.15	0
0	9475	44.2	0
0	9476	44.2	0
0	9477	44.2	0
0	9479	44.2	0
0	9480	44.2	0
0	9481	44.2	0
0	9482	44.25	0
0	9483	44.25	0
0	9484	44.25	0
0	9485	44.3	0
0	9486	44.3	0
0	9487	44.3	0
0	9489	44.3	0
0	9490	44.3	0
0	9491	44.3	0
0	9492	44.35	0
0	9493	44.35	0
0	9494	44.35	0
0	9495	44.4	0
0	9496	44.4	0
0	9497	44.4	0
0	9499	44.4	0
0	9500	44.4	0
0	9501	44.4	0
0	9502	44.45	0
0	9503	44.45	0
0	9504	44.45	0
0	9505	44.5	0
0	9506	44.5	0
0	9507	44.5	0
0	9509	44.5	0
0	9510	44.5	0
0	9511	44.5	0
0	9512	44.55	0
0	9513	44.55	0
0	9514	44.55	0
0	9515	44.6	0
0	9516	44.6	0
0	9517	44.6	0
0	9519	44.6	0
0	9520	44.6	0
0	9521	44.6	0
0	9522	44.65	0
0	9523	44.65	0
0	9524	44.65	0
0	9525	44.7	0
0	9526	44.7	0
0	9527	44.7	0
0	9529	44.7	0
0	9530	44.7	0
0	9531	44.7	0
0	9532	44.75	0
0	9533	44.75	0
0	9534	44.75	0
0	9535	44.8	0
0	9536	44.8	0
0	9537	44.8	0
0	9539	44.8	0
0	9540	44.8	0
0	9541	44.8	0
0	9542	44.85	0
0	9543	44.85	0
0	9544	44.85	0
0	9545	44.9	0
0	9546	44.9	0
0	9547	44.9	0
0	9549	44.9	0
0	9550	44.9	0
0	9551	44.9	0
0	9552	44.95	0
0	9553	44.95	0
0	9554	44.95	0
0	9555	45	0
0	9556	45	0
0	9557	45	0
0	9559	45	0
0	9560	45	0
0	9561	45	0
0	9562	45.05	0
0	9563	45.05	0
0	9564	45.05	0
0	9567	45.1	0
0	9568	45.1	0
0	9569	45.1	0
0	9571	45.1	0
0	9572	45.1	0
0	9573	45.1	0
0	9576	45.15	0
0	9577	45.15	0
0	9578	45.15	0
0	9579	45.2	0
0	9580	45.2	0
0	9581	45.2	0
0	9583	45.2	0
0	9584	45.2	0
0	9585	45.2	0
0	9586	45.25	0
0	9587	45.25	0
0	9588	45.25	0
0	9589	45.3	0
0	9590	45.3	0
0	9591	45.3	0
0	9593	45.3	0
0	9594	45.3	0
0	9595	45.3	0
0	9596	45.35	0
0	9597	45.35	0
0	9598	45.35	0
0	9599	45.4	0
0	9600	45.4	0
0	9601	45.4	0
0	9603	45.4	0
0	9604	45.4	0
0	9605	45.4	0
0	9606	45.45	0
0	9607	45.45	0
0	9608	45.45	0
0	9609	45.5	0
0	9610	45.5	0
0	9611	45.5	0
0	9613	45.5	0
0	9614	45.5	0
0	9615	45.5	0
0	9616	45.55	0
0	9617	45.55	0
0	9618	45.55	0
0	9619	45.6	0
0	9620	45.6	0
0	9621	45.6	0
0	9623	45.6	0
0	9624	45.6	0
0	9625	45.6	0
0	9626	45.65	0
0	9627	45.65	0
0	9628	45.65	0
0	9629	45.7	0
0	9630	45.7	0
0	9631	45.7	0
0	9633	45.7	0
0	9634	45.7	0
0	9635	45.7	0
0	9636	45.75	0
0	9637	45.75	0
0	9638	45.75	0
0	9639	45.8	0
0	9640	45.8	0
0	9641	45.8	0
0	9643	45.8	0
0	9644	45.8	0
0	9645	45.8	0
0	9646	45.85	0
0	9647	45.85	0
0	9648	45.85	0
0	9649	45.9	0
0	9650	45.9	0
0	9651	45.9	0
0	9653	45.9	0
0	9654	45.9	0
0	9655	45.9	0
0	9656	45.95	0
0	9657	45.95	0
0	9658	45.95	0
0	9659	46	0
0	9660	46	0
0	9661	46	0
0	9663	46	0
0	9664	46	0
0	9665	46	0
0	9666	46.05	0
0	9667	46.05	0
0	9668	46.05	0
0	9671	46.1	0
0	9672	46.1	0
0	9673	46.1	0
0	9675	46.1	0
0	9676	46.1	0
0	9677	46.1	0
0	9680	46.15	0
0	9681	46.15	0
0	9682	46.15	0
0	9683	46.2	0
0	9684	46.2	0
0	9685	46.2	0
0	9687	46.2	0
0	9688	46.2	0
0	9689	46.2	0
0	9690	46.25	0
0	9691	46.25	0
0	9692	46.25	0
0	9693	46.3	0
0	9694	46.3	0
0	9695	46.3	0
0	9697	46.3	0
0	9698	46.3	0
0	9699	46.3	0
0	9700	46.35	0
0	9701	46.35	0
0	9702	46.35	0
0	9703	46.4	0
0	9704	46.4	0
0	9705	46.4	0
0	9707	46.4	0
0	9708	46.4	0
0	9709	46.4	0
0	9710	46.45	0
0	9711	46.45	0
0	9712	46.45	0
0	9713	46.5	0
0	9714	46.5	0
0	9715	46.5	0
0	9717	46.5	0
0	9718	46.5	0
0	9719	46.5	0
0	9720	46.55	0
0	9721	46.55	0
0	9722	46.55	0
0	9723	46.6	0
0	9724	46.6	0
0	9725	46.6	0
0	9727	46.6	0
0	9728	46.6	0
0	9729	46.6	0
0	9730	46.65	0
0	9731	46.65	0
0	9732	46.65	0
0	9733	46.7	0
0	9734	46.7	0
0	9735	46.7	0
0	9737	46.7	0
0	9738	46.7	0
0	9739	46.7	0
0	9740	46.75	0
0	9741	46.75	0
0	9742	46.75	0
0	9743	46.8	0
0	9744	46.8	0
0	9745	46.8	0
0	9747	46.8	0
0	9748	46.8	0
0	9749	46.8	0
0	9750	46.85	0
0	9751	46.85	0
0	9752	46.85	0
0	9753	46.9	0
0	9754	46.9	0
0	9755	46.9	0
0	9757	46.9	0
0	9758	46.9	0
0	9759	46.9	0
0	9760	46.95	0
0	9761	46.95	0
0	9762	46.95	0
0	9763	47	0
0	9764	47	0
0	9765	47	0
0	9767	47	0
0	9768	47	0
0	9769	47	0
0	9770	47.05	0
0	9771	47.05	0
0	9772	47.05	0
0	9775	47.1	0
0	9776	47.1	1
0	9777	47.1	1
0	9779	47.1	0
0	9780	47.1	1
0	9781	47.1	1
0	9795	47.15	0
0	9796	47.15	1
0	9797	47.15	1
0	9802	47.2	0
0	9803	47.2	1
0	9804	47.2	1
0	9806	47.2	0
0	9807	47.2	1
0	9808	47.2	1
0	9817	47.25	0
0	9818	47.25	1
0	9819	47.25	1
0	9824	47.3	0
0	9825	47.3	1
0	9826	47.3	1
0	9828	47.3	0
0	9829	47.3	1
0	9830	47.3	1
0	9839	47.35	0
0	9840	47.35	1
0	9841	47.35	1
0	9846	47.4	0
0	9847	47.4	1
0	9848	47.4	1
0	9850	47.4	0
0	9851	47.4	1
0	9852	47.4	1
0	9861	47.45	0
0	9862	47.45	1
0	9863	47.45	1
0	9868	47.5	0
0	9869	47.5	1
0	9870	47.5	1
0	9872	47.5	0
0	9873	47.5	1
0	9874	47.5	1
0	9883	47.55	0
0	9884	47.55	1
0	9885	47.55	1
0	9890	47.6	0
0	9891	47.6	1
0	9892	47.6	1
0	9894	47.6	0
0	9895	47.6	1
0	9896	47.6	1
0	9905	47.65	0
0	9906	47.65	1
0	9907	47.65	1
0	9912	47.7	0
0	9913	47.7	1
0	9914	47.7	1
0	9916	47.7	0
0	9917	47.7	1
0	9918	47.7	1
0	9927	47.75	0
0	9928	47.75	1
0	9929	47.75	1
0	9934	47.8	0
0	9935	47.8	1
0	9936	47.8	1
0	9938	47.8	0
0	9939	47.8	1
0	9940	47.8	1
0	9949	47.85	0
0	9950	47.85	1
0	9951	47.85	1
0	9956	47.9	0
0	9957	47.9	1
0	9958	47.9	1
0	9960	47.9	0
0	9961	47.9	1
0	9962	47.9	1
0	9971	47.95	0
0	9972	47.95	1
0	9973	47.95	1
0	9978	48	0
0	9979	48	1
0	9980	48	1
0	9982	48	0
0	9983	48	1
0	9984	48	1
0	9993	48.05	0
0	9994	48.05	1
0	9995	48.05	1
0	10002	48.1	0
0	10003	48.1	1
0	10004	48.1	1
0	10006	48.1	0
0	10007	48.1	1
0	10008	48.1	1
0	10019	48.15	0
0	10020	48.15	1
0	10021	48.15	1
0	10029	48.2	0
0	10030	48.2	1
0	10031	48.2	1
0	10033	48.2	0
0	10034	48.2	1
0	10035	48.2	1
0	10044	48.25	0
0	10045	48.25	1
0	10046	48.25	1
0	10051	48.3	0
0	10052	48.3	1
0	10053	48.3	1
0	10055	48.3	0
0	10056	48.3	1
0	10057	48.3	1
0	10066	48.35	0
0	10067	48.35	1
0	10068	48.35	1
0	10073	48.4	0
0	10074	48.4	1
0	10075	48.4	1
0	10077	48.4	0
0	10078	48.4	1
0	10079	48.4	1
0	10088	48.45	0
0	10089	48.45	1
0	10090	48.45	1
0	10095	48.5	0
0	10096	48.5	1
0	10097	48.5	1
0	10099	48.5	0
0	10100	48.5	1
0	10101	48.5	1
0	10110	48.55	0
0	10111	48.55	1
0	10112	48.55	1
0	10117	48.6	0
0	10118	48.6	1
0	10119	48.6	1
0	10121	48.6	0
0	10122	48.6	1
0	10123	48.6	1
0	10132	48.65	0
0	10133	48.65	1
0	10134	48.65	1
0	10139	48.7	0
0	10140	48.7	1
0	10141	48.7	1
0	10143	48.7	0
0	10144	48.7	1
0	10145	48.7	1
0	10167	48.75	0
0	10168	48.75	1
0	10169	48.75	1
0	10174	48.8	0
0	10175	48.8	1
0	10176	48.8	1
0	10178	48.8	0
0	10179	48.8	1
0	10180	48.8	1
0	10189	48.85	0
0	10190	48.85	1
0	10191	48.85	1
0	10199	48.9	0
0	10200	48.9	1
0	10201	48.9	1
0	10203	48.9	0
0	10204	48.9	1
0	10205	48.9	1
0	10214	48.95	0
0	10215	48.95	1
0	10216	48.95	1
0	10221	49	0
0	10222	49	1
0	10223	49	1
0	10225	49	0
0	10226	49	1
0	10227	49	1
0	10236	49.05	0
0	10237	49.05	1
0	10238	49.05	1
0	10245	49.1	0
0	10246	49.1	1
0	10247	49.1	1
0	10249	49.1	0
0	10250	49.1	1
0	10251	49.1	1
0	10262	49.15	0
0	10263	49.15	1
0	10264	49.15	1
0	10269	49.2	0
0	10270	49.2	1
0	10271	49.2	1
0	10273	49.2	0
0	10274	49.2	1
0	10275	49.2	1
0	10284	49.25	0
0	10285	49.25	1
0	10286	49.25	1
0	10291	49.3	0
0	10292	49.3	1
0	10293	49.3	1
0	10295	49.3	0
0	10296	49.3	1
0	10297	49.3	1
0	10306	49.35	0
0	10307	49.35	1
0	10308	49.35	1
0	10313	49.4	0
0	10314	49.4	1
0	10315	49.4	1
0	10317	49.4	0
0	10318	49.4	1
0	10319	49.4	1
0	10328	49.45	0
0	10329	49.45	1
0	10330	49.45	1
0	10335	49.5	0
0	10336	49.5	1
0	10337	49.5	1
0	10339	49.5	0
0	10340	49.5	1
0	10341	49.5	1
0	10350	49.55	0
0	10351	49.55	1
0	10352	49.55	1
0	10357	49.6	0
0	10358	49.6	1
0	10359	49.6	1
0	10361	49.6	0
0	10362	49.6	1
0	10363	49.6	1
0	10372	49.65	0
0	10373	49.65	1
0	10374	49.65	1
0	10379	49.7	0
0	10380	49.7	1
0	10381	49.7	1
0	10383	49.7	0
0	10384	49.7	1
0	10385	49.7	1
0	10394	49.75	0
0	10395	49.75	1
0	10396	49.75	1
0	10401	49.8	0
0	10402	49.8	1
0	10403	49.8	1
0	10405	49.8	0
0	10406	49.8	1
0	10407	49.8	1
0	10416	49.85	0
0	10417	49.85	1
0	10418	49.85	1
0	10423	49.9	0
0	10424	49.9	1
0	10425	49.9	1
0	10427	49.9	0
0	10428	49.9	1
0	10429	49.9	1
0	10438	49.95	0
0	10439	49.95	1
0	10440	49.95	1
0	10445	50	0
0	10446	50	1
0	10447	50	1
0	10449	50	0
0	10450	50	1
0	10451	50	1
0	10460	50.05	0
0	10461	50.05	1
0	10462	50.05	1
0	10469	50.1	0
0	10470	50.1	1
0	10471	50.1	1
0	10473	50.1	0
0	10474	50.1	1
0	10475	50.1	1
0	10486	50.15	0
0	10487	50.15	1
0	10488	50.15	1
0	10493	50.2	0
0	10494	50.2	1
0	10495	50.2	1
0	10497	50.2	0
0	10498	50.2	1
0	10499	50.2	1
0	10508	50.25	0
0	10509	50.25	1
0	10510	50.25	1
0	10515	50.3	0
0	10516	50.3	1
0	10517	50.3	1
0	10519	50.3	0
0	10520	50.3	1
0	10521	50.3	1
0	10543	50.35	0
0	10544	50.35	1
0	10545	50.35	1
0	10550	50.4	0
0	10551	50.4	1
0	10552	50.4	1
0	10554	50.4	0
0	10555	50.4	1
0	10556	50.4	1
0	10565	50.45	0
0	10566	50.45	1
0	10567	50.45	1
0	10705	50.5	0
0	10706	50.5	1
0	10707	50.5	1
0	10709	50.5	0
0	10710	50.5	1
0	10711	50.5	1
0	10756	50.55	0
0	10757	50.55	1
0	10758	50.55	1
0	10788	50.6	0
0	10789	50.6	1
0	10790	50.6	1
0	10792	50.6	0
0	10793	50.6	1
0	10794	50.6	1
0	10843	50.65	0
0	10844	50.65	1
0	10845	50.65	1
0	10886	50.7	0
0	10887	50.7	1
0	10888	50.7	1
0	10890	50.7	0
0	10891	50.7	1
0	10892	50.7	1
0	10935	50.75	0
0	10936	50.75	1
0	10937	50.75	1
0	10973	50.8	0
0	10974	50.8	1
0	10975	50.8	1
0	10977	50.8	0
0	10978	50.8	1
0	10979	50.8	1
0	11018	50.85	0
0	11019	50.85	1
0	11020	50.85	1
0	11068	50.9	0
0	11069	50.9	1
0	11070	50.9	1
0	11072	50.9	0
0	11073	50.9	1
0	11074	50.9	1
0	11119	50.95	0
0	11120	50.95	1
0	11121	50.95	1
0	11160	51	0
0	11161	51	1
0	11162	51	1
0	11164	51	0
0	11165	51	1
0	11166	51	1
0	11217	51.05	0
0	11218	51.05	1
0	11219	51.05	1
0	11256	51.1	0
0	11257	51.1	1
0	11258	51.1	1
0	11260	51.1	0
0	11261	51.1	1
0	11262	51.1	1
0	11313	51.15	0
0	11314	51.15	1
0	11315	51.15	1
0	11358	51.2	0
0	11359	51.2	1
0	11360	51.2	1
0	11362	51.2	0
0	11363	51.2	1
0	11364	51.2	1
0	11413	51.25	0
0	11414	51.25	1
0	11415	51.25	1
0	11430	51.3	0
0	11431	51.3	1
0	11432	51.3	1
0	11434	51.3	0
0	11435	51.3	1
0	11436	51.3	1
0	11445	51.35	0
0	11446	51.35	1
0	11447	51.35	1
0	11452	51.4	0
0	11453	51.4	1
0	11454	51.4	1
0	11456	51.4	0
0	11457	51.4	1
0	11458	51.4	1
0	11480	51.45	0
0	11481	51.45	1
0	11482	51.45	1
0	11487	51.5	0
0	11488	51.5	1
0	11489	51.5	1
0	11491	51.5	0
0	11492	51.5	1
0	11493	51.5	1
0	11502	51.55	0
0	11503	51.55	1
0	11504	51.55	1
0	11522	51.6	0
0	11523	51.6	1
0	11524	51.6	1
0	11526	51.6	0
0	11527	51.6	1
0	11528	51.6	1
0	11537	51.65	0
0	11538	51.65	1
0	11539	51.65	1
0	11544	51.7	0
0	11545	51.7	1
0	11546	51.7	1
0	11548	51.7	0
0	11549	51.7	1
0	11550	51.7	1
0	11559	51.75	0
0	11560	51.75	1
0	11561	51.75	1
0	11566	51.8	0
0	11567	51.8	1
0	11568	51.8	1
0	11570	51.8	0
0	11571	51.8	1
0	11572	51.8	1
0	11581	51.85	0
0	11582	51.85	1
0	11583	51.85	1
0	11588	51.9	0
0	11589	51.9	1
0	11590	51.9	1
0	11592	51.9	0
0	11593	51.9	1
0	11594	51.9	1
0	11603	51.95	0
0	11604	51.95	1
0	11605	51.95	1
0	11623	52	0
0	11624	52	1
0	11625	52	1
0	11627	52	0
0	11628	52	1
0	11629	52	1
0	11638	52.05	0
0	11639	52.05	1
0	11640	52.05	1
0	11647	52.1	0
0	11648	52.1	1
0	11649	52.1	1
0	11651	52.1	0
0	11652	52.1	1
0	11653	52.1	1
0	11689	52.15	0
0	11690	52.15	1
0	11691	52.15	1
0	11696	52.2	0
0	11697	52.2	1
0	11698	52.2	1
0	11700	52.2	0
0	11701	52.2	1
0	11702	52.2	1
0	11711	52.25	0
0	11712	52.25	1
0	11713	52.25	1
0	11718	52.3	0
0	11719	52.3	1
0	11720	52.3	1
0	11722	52.3	0
0	11723	52.3	1
0	11724	52.3	1
0	11733	52.35	0
0	11734	52.35	1
0	11735	52.35	1
0	11740	52.4	0
0	11741	52.4	1
0	11742	52.4	1
0	11744	52.4	0
0	11745	52.4	1
0	11746	52.4	1
0	11755	52.45	0
0	11756	52.45	1
0	11757	52.45	1
0	11762	52.5	0
0	11763	52.5	1
0	11764	52.5	1
0	11766	52.5	0
0	11767	52.5	1
0	11768	52.5	1
0	11790	52.55	0
0	11791	52.55	1
0	11792	52.55	1
0	11797	52.6	0
0	11798	52.6	1
0	11799	52.6	1
0	11801	52.6	0
0	11802	52.6	1
0	11803	52.6	1
0	11812	52.65	0
0	11813	52.65	1
0	11814	52.65	1
0	11832	52.7	0
0	11833	52.7	1
0	11834	52.7	1
0	11836	52.7	0
0	11837	52.7	1
0	11838	52.7	1
0	11847	52.75	0
0	11848	52.75	1
0	11849	52.75	1
0	11854	52.8	0
0	11855	52.8	1
0	11856	52.8	1
0	11858	52.8	0
0	11859	52.8	1
0	11860	52.8	1
0	11869	52.85	0
0	11870	52.85	1
0	11871	52.85	1
0	11876	52.9	0
0	11877	52.9	1
0	11878	52.9	1
0	11880	52.9	0
0	11881	52.9	1
0	11882	52.9	1
0	11891	52.95	0
0	11892	52.95	1
0	11893	52.95	1
0	11898	53	0
0	11899	53	1
0	11900	53	1
0	11902	53	0
0	11903	53	1
0	11904	53	1
0	11913	53.05	0
0	11914	53.05	1
0	11915	53.05	1
0	11935	53.1	0
0	11936	53.1	1
0	11937	53.1	1
0	11939	53.1	0
0	11940	53.1	1
0	11941	53.1	1
0	11952	53.15	0
0	11953	53.15	1
0	11954	53.15	1
0	11959	53.2	0
0	11960	53.2	1
0	11961	53.2	1
0	11963	53.2	0
0	11964	53.2	1
0	11965	53.2	1
0	11999	53.25	0
0	12000	53.25	1
0	12001	53.25	1
0	12006	53.3	0
0	12007	53.3	1
0	12008	53.3	1
0	12010	53.3	0
0	12011	53.3	1
0	12012	53.3	1
0	12021	53.35	0
0	12022	53.35	1
0	12023	53.35	1
0	12028	53.4	0
0	12029	53.4	1
0	12030	53.4	1
0	12032	53.4	0
0	12033	53.4	1
0	12034	53.4	1
0	12043	53.45	0
0	12044	53.45	1
0	12045	53.45	1
0	12050	53.5	0
0	12051	53.5	1
0	12052	53.5	1
0	12054	53.5	0
0	12055	53.5	1
0	12056	53.5	1
0	12065	53.55	0
0	12066	53.55	1
0	12067	53.55	1
0	12072	53.6	0
0	12073	53.6	1
0	12074	53.6	1
0	12076	53.6	0
0	12077	53.6	1
0	12078	53.6	1
0	12100	53.65	0
0	12101	53.65	1
0	12102	53.65	1
0	12107	53.7	0
0	12108	53.7	1
0	12109	53.7	1
0	12111	53.7	0
0	12112	53.7	1
0	12113	53.7	1
0	12122	53.75	0
0	12123	53.75	1
0	12124	53.75	1
0	12142	53.8	0
0	12143	53.8	1
0	12144	53.8	1
0	12146	53.8	0
0	12147	53.8	1
0	12148	53.8	1
0	12157	53.85	0
0	12158	53.85	1
0	12159	53.85	1
0	12164	53.9	0
0	12165	53.9	1
0	12166	53.9	1
0	12168	53.9	0
0	12169	53.9	1
0	12170	53.9	1
0	12179	53.95	0
0	12180	53.95	1
0	12181	53.95	1
0	12186	54	0
0	12187	54	1
0	12188	54	1
0	12190	54	0
0	12191	54	1
0	12192	54	1
0	12201	54.05	0
0	12202	54.05	1
0	12203	54.05	1
0	12210	54.1	0
0	12211	54.1	1
0	12212	54.1	1
0	12214	54.1	0
0	12215	54.1	1
0	12216	54.1	1
0	12227	54.15	0
0	12228	54.15	1
0	12229	54.15	1
0	12247	54.2	0
0	12248	54.2	1
0	12249	54.2	1
0	12251	54.2	0
0	12252	54.2	1
0	12253	54.2	1
0	12262	54.25	0
0	12263	54.25	1
0	12264	54.25	1
0	12269	54.3	0
0	12270	54.3	1
0	12271	54.3	1
0	12273	54.3	0
0	12274	54.3	1
0	12275	54.3	1
0	12309	54.35	0
0	12310	54.35	1
0	12311	54.35	1
0	12316	54.4	0
0	12317	54.4	1
0	12318	54.4	1
0	12320	54.4	0
0	12321	54.4	1
0	12322	54.4	1
0	12331	54.45	0
0	12332	54.45	1
0	12333	54.45	1
0	12338	54.5	0
0	12339	54.5	1
0	12340	54.5	1
0	12342	54.5	0
0	12343	54.5	1
0	12344	54.5	1
0	12353	54.55	0
0	12354	54.55	1
0	12355	54.55	1
0	12360	54.6	0
0	12361	54.6	1
0	12362	54.6	1
0	12364	54.6	0
0	12365	54.6	1
0	12366	54.6	1
0	12375	54.65	0
0	12376	54.65	1
0	12377	54.65	1
0	12382	54.7	0
0	12383	54.7	1
0	12384	54.7	1
0	12386	54.7	0
0	12387	54.7	1
0	12388	54.7	1
0	12410	54.75	0
0	12411	54.75	1
0	12412	54.75	1
0	12417	54.8	0
0	12418	54.8	1
0	12419	54.8	1
0	12421	54.8	0
0	12422	54.8	1
0	12423	54.8	1
0	12432	54.85	0
0	12433	54.85	1
0	12434	54.85	1
0	12452	54.9	0
0	12453	54.9	1
0	12454	54.9	1
0	12456	54.9	0
0	12457	54.9	1
0	12458	54.9	1
0	12467	54.95	0
0	12468	54.95	1
0	12469	54.95	1
0	12474	55	0
0	12475	55	1
0	12476	55	1
0	12478	55	0
0	12479	55	1
0	12480	55	1
0	12489	55.05	0
0	12490	55.05	1
0	12491	55.05	1
0	12498	55.1	0
0	12499	55.1	1
0	12500	55.1	1
0	12501	55.1	0
0	12502	55.1	1
0	12503	55.1	1
0	12514	55.15	0
0	12515	55.15	1
0	12516	55.15	1
0	12521	55.2	0
0	12522	55.2	1
0	12523	55.2	1
0	12524	55.2	0
0	12525	55.2	1
0	12526	55.2	1
0	12535	55.25	0
0	12536	55.25	1
0	12537	55.25	1
0	12555	55.3	0
0	12556	55.3	1
0	12557	55.3	1
0	12558	55.3	0
0	12559	55.3	1
0	12560	55.3	1
0	12569	55.35	0
0	12570	55.35	1
0	12571	55.35	1
0	12576	55.4	0
0	12577	55.4	1
0	12578	55.4	1
0	12579	55.4	0
0	12580	55.4	1
0	12581	55.4	1
0	12615	55.45	0
0	12616	55.45	1
0	12617	55.45	1
0	12622	55.5	0
0	12623	55.5	1
0	12624	55.5	1
0	12625	55.5	0
0	12626	55.5	1
0	12627	55.5	1
0	12636	55.55	0
0	12637	55.55	1
0	12638	55.55	1
0	12643	55.6	0
0	12644	55.6	1
0	12645	55.6	1
0	12646	55.6	0
0	12647	55.6	1
0	12648	55.6	1
0	12657	55.65	0
0	12658	55.65	1
0	12659	55.65	1
0	12664	55.7	0
0	12665	55.7	1
0	12666	55.7	1
0	12667	55.7	0
0	12668	55.7	1
0	12669	55.7	1
0	12678	55.75	0
0	12679	55.75	1
0	12680	55.75	1
0	12685	55.8	0
0	12686	55.8	1
0	12687	55.8	1
0	12688	55.8	0
0	12689	55.8	1
0	12690	55.8	1
0	12712	55.85	0
0	12713	55.85	1
0	12714	55.85	1
0	12719	55.9	0
0	12720	55.9	1
0	12721	55.9	1
0	12722	55.9	0
0	12723	55.9	1
0	12724	55.9	1
0	12733	55.95	0
0	12734	55.95	1
0	12735	55.95	1
0	12753	56	0
0	12754	56	1
0	12755	56	1
0	12756	56	0
0	12757	56	1
0	12758	56	1
0	12767	56.05	0
0	12768	56.05	1
0	12769	56.05	1
0	12776	56.1	0
0	12777	56.1	1
0	12778	56.1	1
0	12779	56.1	0
0	12780	56.1	1
0	12781	56.1	1
0	12792	56.15	0
0	12793	56.15	1
0	12794	56.15	1
0	12799	56.2	0
0	12800	56.2	1
0	12801	56.2	1
0	12802	56.2	0
0	12803	56.2	1
0	12804	56.2	1
0	12813	56.25	0
0	12814	56.25	1
0	12815	56.25	1
0	12820	56.3	0
0	12821	56.3	1
0	12822	56.3	1
0	12823	56.3	0
0	12824	56.3	1
0	12825	56.3	1
0	12834	56.35	0
0	12835	56.35	1
0	12836	56.35	1
0	12854	56.4	0
0	12855	56.4	1
0	12856	56.4	1
0	12857	56.4	0
0	12858	56.4	1
0	12859	56.4	1
0	12868	56.45	0
0	12869	56.45	1
0	12870	56.45	1
0	12875	56.5	0
0	12876	56.5	1
0	12877	56.5	1
0	12878	56.5	0
0	12879	56.5	1
0	12880	56.5	1
0	12914	56.55	0
0	12915	56.55	1
0	12916	56.55	1
0	12921	56.6	0
0	12922	56.6	1
0	12923	56.6	1
0	12924	56.6	0
0	12925	56.6	1
0	12926	56.6	1
0	12935	56.65	0
0	12936	56.65	1
0	12937	56.65	1
0	12942	56.7	0
0	12943	56.7	1
0	12944	56.7	1
0	12945	56.7	0
0	12946	56.7	1
0	12947	56.7	1
0	12956	56.75	0
0	12957	56.75	1
0	12958	56.75	1
0	12963	56.8	0
0	12964	56.8	1
0	12965	56.8	1
0	12966	56.8	0
0	12967	56.8	1
0	12968	56.8	1
0	12977	56.85	0
0	12978	56.85	1
0	12979	56.85	1
0	12984	56.9	0
0	12985	56.9	1
0	12986	56.9	1
0	12987	56.9	0
0	12988	56.9	1
0	12989	56.9	1
0	13011	56.95	0
0	13012	56.95	1
0	13013	56.95	1
0	13018	57	0
0	13019	57	1
0	13020	57	1
0	13021	57	0
0	13022	57	1
0	13023	57	1
0	13032	57.05	0
0	13033	57.05	1
0	13034	57.05	1
0	13054	57.1	0
0	13055	57.1	1
0	13056	57.1	1
0	13057	57.1	0
0	13058	57.1	1
0	13059	57.1	1
0	13070	57.15	0
0	13071	57.15	1
0	13072	57.15	1
0	13077	57.2	0
0	13078	57.2	1
0	13079	57.2	1
0	13080	57.2	0
0	13081	57.2	1
0	13082	57.2	1
0	13091	57.25	0
0	13092	57.25	1
0	13093	57.25	1
0	13098	57.3	0
0	13099	57.3	1
0	13100	57.3	1
0	13101	57.3	0
0	13102	57.3	1
0	13103	57.3	1
0	13112	57.35	0
0	13113	57.35	1
0	13114	57.35	1
0	13119	57.4	0
0	13120	57.4	1
0	13121	57.4	1
0	13122	57.4	0
0	13123	57.4	1
0	13124	57.4	1
0	13133	57.45	0
0	13134	57.45	1
0	13135	57.45	1
0	13153	57.5	0
0	13154	57.5	1
0	13155	57.5	1
0	13156	57.5	0
0	13157	57.5	1
0	13158	57.5	1
0	13167	57.55	0
0	13168	57.55	1
0	13169	57.55	1
0	13174	57.6	0
0	13175	57.6	1
0	13176	57.6	1
0	13177	57.6	0
0	13178	57.6	1
0	13179	57.6	1
0	13213	57.65	0
0	13214	57.65	1
0	13215	57.65	1
0	13220	57.7	0
0	13221	57.7	1
0	13222	57.7	1
0	13223	57.7	0
0	13224	57.7	1
0	13225	57.7	1
0	13234	57.75	0
0	13235	57.75	1
0	13236	57.75	1
0	13241	57.8	0
0	13242	57.8	1
0	13243	57.8	1
0	13244	57.8	0
0	13245	57.8	1
0	13246	57.8	1
0	13255	57.85	0
0	13256	57.85	1
0	13257	57.85	1
0	13262	57.9	0
0	13263	57.9	1
0	13264	57.9	1
0	13265	57.9	0
0	13266	57.9	1
0	13267	57.9	1
0	13276	57.95	0
0	13277	57.95	1
0	13278	57.95	1
0	13283	58	0
0	13284	58	1
0	13285	58	1
0	13286	58	0
0	13287	58	1
0	13288	58	1
0	13310	58.05	0
0	13311	58.05	1
0	13312	58.05	1
0	13319	58.1	0
0	13320	58.1	1
0	13321	58.1	1
0	13322	58.1	0
0	13323	58.1	1
0	13324	58.1	1
0	13335	58.15	0
0	13336	58.15	1
0	13337	58.15	1
0	13367	58.2	0
0	13368	58.2	1
0	13369	58.2	1
0	13370	58.2	0
0	13371	58.2	1
0	13372	58.2	1
0	13381	58.25	0
0	13382	58.25	1
0	13383	58.25	1
0	13388	58.3	0
0	13389	58.3	1
0	13390	58.3	1
0	13391	58.3	0
0	13392	58.3	1
0	13393	58.3	1
0	13402	58.35	0
0	13403	58.35	1
0	13404	58.35	1
0	13409	58.4	0
0	13410	58.4	1
0	13411	58.4	1
0	13412	58.4	0
0	13413	58.4	1
0	13414	58.4	1
0	13423	58.45	0
0	13424	58.45	1
0	13425	58.45	1
0	13430	58.5	0
0	13431	58.5	1
0	13432	58.5	1
0	13433	58.5	0
0	13434	58.5	1
0	13435	58.5	1
0	13444	58.55	0
0	13445	58.55	1
0	13446	58.55	1
0	13464	58.6	0
0	13465	58.6	1
0	13466	58.6	1
0	13467	58.6	0
0	13468	58.6	1
0	13469	58.6	1
0	13478	58.65	0
0	13479	58.65	1
0	13480	58.65	1
0	13485	58.7	0
0	13486	58.7	1
0	13487	58.7	1
0	13488	58.7	0
0	13489	58.7	1
0	13490	58.7	1
0	13512	58.75	0
0	13513	58.75	1
0	13514	58.75	1
0	13519	58.8	0
0	13520	58.8	1
0	13521	58.8	1
0	13522	58.8	0
0	13523	58.8	1
0	13524	58.8	1
0	13533	58.85	0
0	13534	58.85	1
0	13535	58.85	1
0	13540	58.9	0
0	13541	58.9	1
0	13542	58.9	1
0	13543	58.9	0
0	13544	58.9	1
0	13545	58.9	1
0	13554	58.95	0
0	13555	58.95	1
0	13556	58.95	1
0	13561	59	0
0	13562	59	1
0	13563	59	1
0	13564	59	0
0	13565	59	1
0	13566	59	1
0	13575	59.05	0
0	13576	59.05	1
0	13577	59.05	1
0	13584	59.1	0
0	13585	59.1	1
0	13586	59.1	1
0	13587	59.1	0
0	13588	59.1	1
0	13589	59.1	1
0	13613	59.15	0
0	13614	59.15	1
0	13615	59.15	1
0	13620	59.2	0
0	13621	59.2	1
0	13622	59.2	1
0	13623	59.2	0
0	13624	59.2	1
0	13625	59.2	1
0	13634	59.25	0
0	13635	59.25	1
0	13636	59.25	1
0	13666	59.3	0
0	13667	59.3	1
0	13668	59.3	1
0	13669	59.3	0
0	13670	59.3	1
0	13671	59.3	1
0	13680	59.35	0
0	13681	59.35	1
0	13682	59.35	1
0	13687	59.4	0
0	13688	59.4	1
0	13689	59.4	1
0	13690	59.4	0
0	13691	59.4	1
0	13692	59.4	1
0	13701	59.45	0
0	13702	59.45	1
0	13703	59.45	1
0	13708	59.5	0
0	13709	59.5	1
0	13710	59.5	1
0	13711	59.5	0
0	13712	59.5	1
0	13713	59.5	1
0	13722	59.55	0
0	13723	59.55	1
0	13724	59.55	1
0	13729	59.6	0
0	13730	59.6	1
0	13731	59.6	1
0	13732	59.6	0
0	13733	59.6	1
0	13734	59.6	1
0	13743	59.65	0
0	13744	59.65	1
0	13745	59.65	1
0	13763	59.7	0
0	13764	59.7	1
0	13765	59.7	1
0	13766	59.7	0
0	13767	59.7	1
0	13768	59.7	1
0	13777	59.75	0
0	13778	59.75	1
0	13779	59.75	1
0	13784	59.8	0
0	13785	59.8	1
0	13786	59.8	1
0	13787	59.8	0
0	13788	59.8	1
0	13789	59.8	1
0	13811	59.85	0
0	13812	59.85	1
0	13813	59.85	1
0	13818	59.9	0
0	13819	59.9	1
0	13820	59.9	1
0	13821	59.9	0
0	13822	59.9	1
0	13823	59.9	1
0	13832	59.95	0
0	13833	59.95	1
0	13834	59.95	1
0	13839	60	0
0	13840	60	1
0	13841	60	1
0	13842	60	0
0	13843	60	1
0	13844	60	1
0	13853	60.05	0
0	13854	60.05	1
0	13855	60.05	1
0	13862	60.1	0
0	13863	60.1	1
0	13864	60.1	1
0	13865	60.1	0
0	13866	60.1	1
0	13867	60.1	1
0	13878	60.15	0
0	13879	60.15	1
0	13880	60.15	1
0	13885	60.2	0
0	13886	60.2	1
[...]
0	19991	82.45	0
0	19992	82.45	1
0	19993	82.45	1
0	19998	82.5	0
0	19999	82.5	1
0	20000	82.5	1
0	20001	82.5	0
0	20002	82.5	1
0	20003	82.5	1
0	20012	82.55	0
0	20013	82.55	1
0	20014	82.55	1
0	20019	82.6	0
0	20020	82.6	1
0	20021	82.6	1
0	20022	82.6	0
0	20023	82.6	1
0	20024	82.6	1
0	20033	82.65	0
0	20034	82.65	1
0	20035	82.65	1
0	20040	82.7	0
0	20041	82.7	1
0	20042	82.7	1
0	20043	82.7	0
0	20044	82.7	1
0	20045	82.7	1
0	20054	82.75	0
0	20055	82.75	1
0	20056	82.75	1
0	20074	82.8	0
0	20075	82.8	1
0	20076	82.8	1
0	20077	82.8	0
0	20078	82.8	1
0	20079	82.8	1
0	20088	82.85	0
0	20089	82.85	1
0	20090	82.85	1
0	20095	82.9	0
0	20096	82.9	1
0	20097	82.9	1
0	20098	82.9	0
0	20099	82.9	1
0	20100	82.9	1
0	20122	82.95	0
0	20123	82.95	1
0	20124	82.95	1
0	20129	83	0
0	20130	83	1
0	20131	83	1
0	20132	83	0
0	20133	83	1
0	20134	83	1
0	20143	83.05	0
0	20144	83.05	1
0	20145	83.05	1
0	20152	83.1	0
0	20153	83.1	1
0	20154	83.1	1
0	20155	83.1	0
0	20156	83.1	1
0	20157	83.1	1
0	20168	83.15	0
0	20169	83.15	1
0	20170	83.15	1
0	20175	83.2	0
0	20176	83.2	1
0	20177	83.2	1
0	20178	83.2	0
0	20179	83.2	1
0	20180	83.2	1
0	20189	83.25	0
0	20190	83.25	1
0	20191	83.25	1
0	20196	83.3	0
0	20197	83.3	1
0	20198	83.3	1
0	20199	83.3	0
0	20200	83.3	1
0	20201	83.3	1
0	20223	83.35	0
0	20224	83.35	1
0	20225	83.35	1
0	20230	83.4	0
0	20231	83.4	1
0	20232	83.4	1
0	20233	83.4	0
0	20234	83.4	1
0	20235	83.4	1
0	20244	83.45	0
0	20245	83.45	1
0	20246	83.45	1
0	20276	83.5	0
0	20277	83.5	1
0	20278	83.5	1
0	20279	83.5	0
0	20280	83.5	1
0	20281	83.5	1
0	20290	83.55	0
0	20291	83.55	1
0	20292	83.55	1
0	20297	83.6	0
0	20298	83.6	1
0	20299	83.6	1
0	20300	83.6	0
0	20301	83.6	1
0	20302	83.6	1
0	20311	83.65	0
0	20312	83.65	1
0	20313	83.65	1
0	20318	83.7	0
0	20319	83.7	1
0	20320	83.7	1
0	20321	83.7	0
0	20322	83.7	1
0	20323	83.7	1
0	20332	83.75	0
0	20333	83.75	1
0	20334	83.75	1
0	20339	83.8	0
0	20340	83.8	1
0	20341	83.8	1
0	20342	83.8	0
0	20343	83.8	1
0	20344	83.8	1
0	20353	83.85	0
0	20354	83.85	1
0	20355	83.85	1
0	20373	83.9	0
0	20374	83.9	1
0	20375	83.9	1
0	20376	83.9	0
0	20377	83.9	1
0	20378	83.9	1
0	20387	83.95	0
0	20388	83.95	1
0	20389	83.95	1
0	20394	84	0
0	20395	84	1
0	20396	84	1
0	20397	84	0
0	20398	84	1
0	20399	84	1
0	20421	84.05	0
0	20422	84.05	1
0	20423	84.05	1
0	20430	84.1	0
0	20431	84.1	1
0	20432	84.1	1
0	20433	84.1	0
0	20434	84.1	1
0	20435	84.1	1
0	20446	84.15	0
0	20447	84.15	1
0	20448	84.15	1
0	20453	84.2	0
0	20454	84.2	1
0	20455	84.2	1
0	20456	84.2	0
0	20457	84.2	1
0	20458	84.2	1
0	20467	84.25	0
0	20468	84.25	1
0	20469	84.25	1
0	20474	84.3	0
0	20475	84.3	1
0	20476	84.3	1
0	20477	84.3	0
0	20478	84.3	1
0	20479	84.3	1
0	20488	84.35	0
0	20489	84.35	1
0	20490	84.35	1
0	20495	84.4	0
0	20496	84.4	1
0	20497	84.4	1
0	20498	84.4	0
0	20499	84.4	1
0	20500	84.4	1
0	20522	84.45	0
0	20523	84.45	1
0	20524	84.45	1
0	20529	84.5	0
0	20530	84.5	1
0	20531	84.5	1
0	20532	84.5	0
0	20533	84.5	1
0	20534	84.5	1
0	20543	84.55	0
0	20544	84.55	1
0	20545	84.55	1
0	20575	84.6	0
0	20576	84.6	1
0	20577	84.6	1
0	20578	84.6	0
0	20579	84.6	1
0	20580	84.6	1
0	20589	84.65	0
0	20590	84.65	1
0	20591	84.65	1
0	20596	84.7	0
0	20597	84.7	1
0	20598	84.7	1
0	20599	84.7	0
0	20600	84.7	1
0	20601	84.7	1
0	20610	84.75	0
0	20611	84.75	1
0	20612	84.75	1
0	20617	84.8	0
0	20618	84.8	1
0	20619	84.8	1
0	20620	84.8	0
0	20621	84.8	1
0	20622	84.8	1
0	20631	84.85	0
0	20632	84.85	1
0	20633	84.85	1
0	20638	84.9	0
0	20639	84.9	1
0	20640	84.9	1
0	20641	84.9	0
0	20642	84.9	1
0	20643	84.9	1
0	20652	84.95	0
0	20653	84.95	1
0	20654	84.95	1
0	20672	85	0
0	20673	85	1
0	20674	85	1
0	20675	85	0
0	20676	85	1
0	20677	85	1
0	20686	85.05	0
0	20687	85.05	1
0	20688	85.05	1
0	20695	85.1	0
0	20696	85.1	1
0	20697	85.1	1
0	20698	85.1	0
0	20699	85.1	1
0	20700	85.1	1
0	20736	85.15	0
0	20737	85.15	1
0	20738	85.15	1
0	20743	85.2	0
0	20744	85.2	1
0	20745	85.2	1
0	20746	85.2	0
0	20747	85.2	1
0	20748	85.2	1
0	20757	85.25	0
0	20758	85.25	1
0	20759	85.25	1
0	20764	85.3	0
0	20765	85.3	1
0	20766	85.3	1
0	20767	85.3	0
0	20768	85.3	1
0	20769	85.3	1
0	20778	85.35	0
0	20779	85.35	1
0	20780	85.35	1
0	20785	85.4	0
0	20786	85.4	1
0	20787	85.4	1
0	20788	85.4	0
0	20789	85.4	1
0	20790	85.4	1
0	20799	85.45	0
0	20800	85.45	1
0	20801	85.45	1
0	20806	85.5	0
0	20807	85.5	1
0	20808	85.5	1
0	20809	85.5	0
0	20810	85.5	1
0	20811	85.5	1
0	20833	85.55	0
0	20834	85.55	1
0	20835	85.55	1
0	20840	85.6	0
0	20841	85.6	1
0	20842	85.6	1
0	20843	85.6	0
0	20844	85.6	1
0	20845	85.6	1
0	20854	85.65	0
0	20855	85.65	1
0	20856	85.65	1
0	20874	85.7	0
0	20875	85.7	1
0	20876	85.7	1
0	20877	85.7	0
0	20878	85.7	1
0	20879	85.7	1
0	20888	85.75	0
0	20889	85.75	1
0	20890	85.75	1
0	20895	85.8	0
0	20896	85.8	1
0	20897	85.8	1
0	20898	85.8	0
0	20899	85.8	1
0	20900	85.8	1
0	20909	85.85	0
0	20910	85.85	1
0	20911	85.85	1
0	20916	85.9	0
0	20917	85.9	1
0	20918	85.9	1
0	20919	85.9	0
0	20920	85.9	1
0	20921	85.9	1
0	20930	85.95	0
0	20931	85.95	1
0	20932	85.95	1
0	20937	86	0
0	20938	86	1
0	20939	86	1
0	20940	86	0
0	20941	86	1
0	20942	86	1
0	20951	86.05	0
0	20952	86.05	1
0	20953	86.05	1
0	20973	86.1	0
0	20974	86.1	1
0	20975	86.1	1
0	20976	86.1	0
0	20977	86.1	1
0	20978	86.1	1
0	20989	86.15	0
0	20990	86.15	1
0	20991	86.15	1
0	20996	86.2	0
0	20997	86.2	1
0	20998	86.2	1
0	20999	86.2	0
0	21000	86.2	1
0	21001	86.2	1
0	21035	86.25	0
0	21036	86.25	1
0	21037	86.25	1
0	21042	86.3	0
0	21043	86.3	1
0	21044	86.3	1
0	21045	86.3	0
0	21046	86.3	1
0	21047	86.3	1
0	21056	86.35	0
0	21057	86.35	1
0	21058	86.35	1
0	21063	86.4	0
0	21064	86.4	1
0	21065	86.4	1
0	21066	86.4	0
0	21067	86.4	1
0	21068	86.4	1
0	21077	86.45	0
0	21078	86.45	1
0	21079	86.45	1
0	21084	86.5	0
0	21085	86.5	1
0	21086	86.5	1
0	21087	86.5	0
0	21088	86.5	1
0	21089	86.5	1
0	21098	86.55	0
0	21099	86.55	1
0	21100	86.55	1
0	21105	86.6	0
0	21106	86.6	1
0	21107	86.6	1
0	21108	86.6	0
0	21109	86.6	1
0	21110	86.6	1
0	21132	86.65	0
0	21133	86.65	1
0	21134	86.65	1
0	21139	86.7	0
0	21140	86.7	1
0	21141	86.7	1
0	21142	86.7	0
0	21143	86.7	1
0	21144	86.7	1
0	21153	86.75	0
0	21154	86.75	1
0	21155	86.75	1
0	21173	86.8	0
0	21174	86.8	1
0	21175	86.8	1
0	21176	86.8	0
0	21177	86.8	1
0	21178	86.8	1
0	21187	86.85	0
0	21188	86.85	1
0	21189	86.85	1
0	21194	86.9	0
0	21195	86.9	1
0	21196	86.9	1
0	21197	86.9	0
0	21198	86.9	1
0	21199	86.9	1
0	21208	86.95	0
0	21209	86.95	1
0	21210	86.95	1
0	21215	87	0
0	21216	87	1
0	21217	87	1
0	21218	87	0
0	21219	87	1
0	21220	87	1
0	21229	87.05	0
0	21230	87.05	1
0	21231	87.05	1
0	21238	87.1	0
0	21239	87.1	1
0	21240	87.1	1
0	21241	87.1	0
0	21242	87.1	1
0	21243	87.1	1
0	21254	87.15	0
0	21255	87.15	1
0	21256	87.15	1
0	21274	87.2	0
0	21275	87.2	1
0	21276	87.2	1
0	21277	87.2	0
0	21278	87.2	1
0	21279	87.2	1
0	21288	87.25	0
0	21289	87.25	1
0	21290	87.25	1
0	21295	87.3	0
0	21296	87.3	1
0	21297	87.3	1
0	21298	87.3	0
0	21299	87.3	1
0	21300	87.3	1
0	21334	87.35	0
0	21335	87.35	1
0	21336	87.35	1
0	21341	87.4	0
0	21342	87.4	1
0	21343	87.4	1
0	21344	87.4	0
0	21345	87.4	1
0	21346	87.4	1
0	21355	87.45	0
0	21356	87.45	1
0	21357	87.45	1
0	21362	87.5	0
0	21363	87.5	1
0	21364	87.5	1
0	21365	87.5	0
0	21366	87.5	1
0	21367	87.5	1
0	21376	87.55	0
0	21377	87.55	1
0	21378	87.55	1
0	21383	87.6	0
0	21384	87.6	1
0	21385	87.6	1
0	21386	87.6	0
0	21387	87.6	1
0	21388	87.6	1
0	21397	87.65	0
0	21398	87.65	1
0	21399	87.65	1
0	21404	87.7	0
0	21405	87.7	1
0	21406	87.7	1
0	21407	87.7	0
0	21408	87.7	1
0	21409	87.7	1
0	21431	87.75	0
0	21432	87.75	1
0	21433	87.75	1
0	21438	87.8	0
0	21439	87.8	1
0	21440	87.8	1
0	21441	87.8	0
0	21442	87.8	1
0	21443	87.8	1
0	21452	87.85	0
0	21453	87.85	1
0	21454	87.85	1
0	21472	87.9	0
0	21473	87.9	1
0	21474	87.9	1
0	21475	87.9	0
0	21476	87.9	1
0	21477	87.9	1
0	21486	87.95	0
0	21487	87.95	1
0	21488	87.95	1
0	21493	88	0
0	21494	88	1
0	21495	88	1
0	21496	88	0
0	21497	88	1
0	21498	88	1
0	21507	88.05	0
0	21508	88.05	1
0	21509	88.05	1
0	21516	88.1	0
0	21517	88.1	1
0	21518	88.1	1
0	21519	88.1	0
0	21520	88.1	1
0	21521	88.1	1
0	21532	88.15	0
0	21533	88.15	1
0	21534	88.15	1
0	21539	88.2	0
0	21540	88.2	1
0	21541	88.2	1
0	21542	88.2	0
0	21543	88.2	1
0	21544	88.2	1
0	21553	88.25	0
0	21554	88.25	1
0	21555	88.25	1
0	21573	88.3	0
0	21574	88.3	1
0	21575	88.3	1
0	21576	88.3	0
0	21577	88.3	1
0	21578	88.3	1
0	21587	88.35	0
0	21588	88.35	1
0	21589	88.35	1
0	21594	88.4	0
0	21595	88.4	1
0	21596	88.4	1
0	21597	88.4	0
0	21598	88.4	1
0	21599	88.4	1
0	21633	88.45	0
0	21634	88.45	1
0	21635	88.45	1
0	21640	88.5	0
0	21641	88.5	1
0	21642	88.5	1
0	21643	88.5	0
0	21644	88.5	1
0	21645	88.5	1
0	21654	88.55	0
0	21655	88.55	1
0	21656	88.55	1
0	21661	88.6	0
0	21662	88.6	1
0	21663	88.6	1
0	21664	88.6	0
0	21665	88.6	1
0	21666	88.6	1
0	21675	88.65	0
0	21676	88.65	1
0	21677	88.65	1
0	21682	88.7	0
0	21683	88.7	1
0	21684	88.7	1
0	21685	88.7	0
0	21686	88.7	1
0	21687	88.7	1
0	21696	88.75	0
0	21697	88.75	1
0	21698	88.75	1
0	21703	88.8	0
0	21704	88.8	1
0	21705	88.8	1
0	21706	88.8	0
0	21707	88.8	1
0	21708	88.8	1
0	21730	88.85	0
0	21731	88.85	1
0	21732	88.85	1
0	21737	88.9	0
0	21738	88.9	1
0	21739	88.9	1
0	21740	88.9	0
0	21741	88.9	1
0	21742	88.9	1
0	21751	88.95	0
0	21752	88.95	1
0	21753	88.95	1
0	21771	89	0
0	21772	89	1
0	21773	89	1
0	21774	89	0
0	21775	89	1
0	21776	89	1
0	21785	89.05	0
0	21786	89.05	1
0	21787	89.05	1
0	21794	89.1	0
0	21795	89.1	1
0	21796	89.1	1
0	21797	89.1	0
0	21798	89.1	1
0	21799	89.1	1
0	21810	89.15	0
0	21811	89.15	1
0	21812	89.15	1
0	21817	89.2	0
0	21818	89.2	1
0	21819	89.2	1
0	21820	89.2	0
0	21821	89.2	1
0	21822	89.2	1
0	21831	89.25	0
0	21832	89.25	1
0	21833	89.25	1
0	21838	89.3	0
0	21839	89.3	1
0	21840	89.3	1
0	21841	89.3	0
0	21842	89.3	1
0	21843	89.3	1
0	21852	89.35	0
0	21853	89.35	1
0	21854	89.35	1
0	21872	89.4	0
0	21873	89.4	1
0	21874	89.4	1
0	21875	89.4	0
0	21876	89.4	1
0	21877	89.4	1
0	21886	89.45	0
0	21887	89.45	1
0	21888	89.45	1
0	21893	89.5	0
0	21894	89.5	1
0	21895	89.5	1
0	21896	89.5	0
0	21897	89.5	1
0	21898	89.5	1
0	21932	89.55	0
0	21933	89.55	1
0	21934	89.55	1
0	21939	89.6	0
0	21940	89.6	1
0	21941	89.6	1
0	21942	89.6	0
0	21943	89.6	1
0	21944	89.6	1
0	21953	89.65	0
0	21954	89.65	1
0	21955	89.65	1
0	21960	89.7	0
0	21961	89.7	1
0	21962	89.7	1
0	21963	89.7	0
0	21964	89.7	1
0	21965	89.7	1
0	21974	89.75	0
0	21975	89.75	1
0	21976	89.75	1
0	21981	89.8	0
0	21982	89.8	1
0	21983	89.8	1
0	21984	89.8	0
0	21985	89.8	1
0	21986	89.8	1
0	21995	89.85	0
0	21996	89.85	1
0	21997	89.85	1
0	22002	89.9	0
0	22003	89.9	1
0	22004	89.9	1
0	22005	89.9	0
0	22006	89.9	1
0	22007	89.9	1
0	22029	89.95	0
0	22030	89.95	1
0	22031	89.95	1
0	22036	90	0
0	22037	90	1
0	22038	90	1
0	22039	90	0
0	22040	90	1
0	22041	90	1
1	19	0.1	-nan
1	21	0.1	-nan
1	313	1.1	-nan
1	314	1.1	-nan
1	759	2.1	-nan
1	760	2.1	-nan
1	1202	3.1	-nan
1	1203	3.1	-nan
1	1654	4.1	-nan
1	1655	4.1	-nan
1	2090	5.1	-nan
1	2091	5.1	-nan
1	2438	6.1	-nan
1	2439	6.1	-nan
1	2783	7.1	-nan
1	2784	7.1	-nan
1	3176	8.1	-nan
1	3177	8.1	-nan
1	3546	9.1	-nan
1	3547	9.1	-nan
1	3846	10.1	-nan
1	3847	10.1	-nan
1	4080	11.1	-nan
1	4081	11.1	-nan
1	4366	12.1	-nan
1	4367	12.1	-nan
1	4652	13.1	-nan
1	4653	13.1	-nan
1	4938	14.1	-nan
1	4939	14.1	-nan
1	5211	15.1	-nan
1	5212	15.1	-nan
1	5487	16.1	-nan
1	5488	16.1	-nan
1	5721	17.1	-nan
1	5722	17.1	-nan
1	6004	18.1	-nan
1	6005	18.1	-nan
1	6290	19.1	-nan
1	6291	19.1	-nan
1	6560	20.1	-nan
1	6561	20.1	-nan
1	6820	21.1	-nan
1	6821	21.1	-nan
1	7047	22.1	-nan
1	7048	22.1	-nan
1	7277	23.1	-nan
1	7278	23.1	-nan
1	7381	24.1	-nan
1	7382	24.1	-nan
1	7485	25.1	-nan
1	7486	25.1	-nan
1	7589	26.1	-nan
1	7590	26.1	-nan
1	7693	27.1	-nan
1	7694	27.1	-nan
1	7797	28.1	-nan
1	7798	28.1	-nan
1	7901	29.1	-nan
1	7902	29.1	-nan
1	8005	30.1	-nan
1	8006	30.1	-nan
1	8109	31.1	-nan
1	8110	31.1	-nan
1	8213	32.1	-nan
1	8214	32.1	-nan
1	8317	33.1	-nan
1	8318	33.1	-nan
1	8421	34.1	-nan
1	8422	34.1	-nan
1	8525	35.1	-nan
1	8526	35.1	-nan
1	8629	36.1	-nan
1	8630	36.1	-nan
1	8733	37.1	-nan
1	8734	37.1	-nan
1	8837	38.1	-nan
1	8838	38.1	-nan
1	8941	39.1	-nan
1	8942	39.1	-nan
1	9045	40.1	-nan
1	9046	40.1	-nan
1	9149	41.1	-nan
1	9150	41.1	-nan
1	9253	42.1	-nan
1	9254	42.1	-nan
1	9357	43.1	-nan
1	9358	43.1	-nan
1	9461	44.1	-nan
1	9462	44.1	-nan
1	9565	45.1	-nan
1	9566	45.1	-nan
1	9669	46.1	-nan
1	9670	46.1	-nan
1	9773	47.1	-nan
1	9774	47.1	-nan
1	10000	48.1	-nan
1	10001	48.1	-nan
1	10243	49.1	-nan
1	10244	49.1	-nan
1	10467	50.1	-nan
1	10468	50.1	-nan
1	11254	51.1	-nan
1	11255	51.1	-nan
1	11645	52.1	-nan
1	11646	52.1	-nan
1	11933	53.1	-nan
1	11934	53.1	-nan
1	12208	54.1	-nan
1	12209	54.1	-nan
1	12496	55.1	-nan
1	12497	55.1	-nan
1	12774	56.1	-nan
1	12775	56.1	-nan
1	13052	57.1	-nan
1	13053	57.1	-nan
1	13317	58.1	-nan
1	13318	58.1	-nan
1	13582	59.1	-nan
1	13583	59.1	-nan
1	13860	60.1	-nan
1	13861	60.1	-nan
1	14138	61.1	-nan
1	14139	61.1	-nan
1	14416	62.1	-nan
1	14417	62.1	-nan
1	14681	63.1	-nan
1	14682	63.1	-nan
1	14959	64.1	-nan
1	14960	64.1	-nan
1	15224	65.1	-nan
1	15225	65.1	-nan
1	15502	66.1	-nan
1	15503	66.1	-nan
1	15780	67.1	-nan
1	15781	67.1	-nan
1	16058	68.1	-nan
1	16059	68.1	-nan
1	16323	69.1	-nan
1	16324	69.1	-nan
1	16588	70.1	-nan
1	16589	70.1	-nan
1	16866	71.1	-nan
1	16867	71.1	-nan
1	17144	72.1	-nan
1	17145	72.1	-nan
1	17422	73.1	-nan
1	17423	73.1	-nan
1	17687	74.1	-nan
1	17688	74.1	-nan
1	17965	75.1	-nan
1	17966	75.1	-nan
1	18230	76.1	-nan
1	18231	76.1	-nan
1	18508	77.1	-nan
1	18509	77.1	-nan
1	18786	78.1	-nan
1	18787	78.1	-nan
1	19064	79.1	-nan
1	19065	79.1	-nan
1	19329	80.1	-nan
1	19330	80.1	-nan
1	19594	81.1	-nan
1	19595	81.1	-nan
1	19872	82.1	-nan
1	19873	82.1	-nan
1	20150	83.1	-nan
1	20151	83.1	-nan
1	20428	84.1	-nan
1	20429	84.1	-nan
1	20693	85.1	-nan
1	20694	85.1	-nan
1	20971	86.1	-nan
1	20972	86.1	-nan
1	21236	87.1	-nan
1	21237	87.1	-nan
1	21514	88.1	-nan
1	21515	88.1	-nan
1	21792	89.1	-nan
1	21793	89.1	-nan
2	396	1.142624192201	141
2	415	1.156464192201	282
2	626	1.688032534095	423
2	656	1.701872534095	564
2	875	2.238032534095	705
2	881	2.242624192201	846
2	900	2.256464192201	987
2	910	2.270304192201	1128
2	1345	3.338032534095	1269
2	1351	3.342624192201	1410
2	1367	3.356464192201	1551
2	1582	3.892624192201	1692
2	1609	3.906464192201	1833
2	1826	4.438032534095	1974
2	1832	4.442624192201	2115
2	1851	4.456464192201	2256
2	2054	4.992624192201	2397
2	2305	5.678453385287	2538
2	2509	6.228453385287	2679
2	2919	7.328453385287	2820
2	3114	7.878453385287	2961
2	3320	8.428453385287	3102
2	3330	8.442293385287	3243
2	10688	50.478383411122	3384
2	10698	50.492223272718	3525
2	10723	50.506063134604	3666
2	10733	50.51990299678	3807
2	10743	50.533742859245	3948
2	10753	50.547582722	4089
2	10771	50.575262448376	4230
2	10781	50.589102311996	4371
2	10806	50.602942175903	4512
2	10816	50.616782040098	4653
2	10826	50.630621904579	4794
2	10836	50.644461769346	4935
2	10853	50.658301634399	5076
2	10863	50.672141499737	5217
2	10873	50.68598136536	5358
2	10883	50.699821231268	5499
2	10908	50.71366109746	5640
2	10918	50.727500963935	5781
2	10928	50.741340830693	5922
2	10945	50.755180697734	6063
2	10955	50.769020565057	6204
2	10966	50.796700300549	6345
2	10991	50.810540168717	6486
2	11001	50.824380037165	6627
2	11011	50.838219905893	6768
2	11030	50.8520597749	6909
2	11047	50.865899644187	7050
2	11054	50.879739513753	7191
2	11061	50.893579383597	7332
2	11086	50.907419253719	7473
2	11096	50.921259124118	7614
2	11106	50.935098994794	7755
2	11116	50.948938865747	7896
2	11133	50.962778736976	8037
2	11143	50.976618608481	8178
2	11153	50.990458480261	8319
2	11180	51.004298352315	8460
2	11190	51.018138224644	8601
2	11200	51.031978097247	8742
2	11210	51.045817970124	8883
2	11227	51.059657843273	9024
2	11237	51.073497716695	9165
2	11247	51.08733759039	9306
2	11276	51.101177464356	9447
2	11286	51.115017338593	9588
2	11296	51.128857213101	9729
2	11306	51.142697087879	9870
2	11351	51.189443367026	10011
2	11376	51.203283242983	10152
2	11386	51.217123119208	10293
2	11396	51.230962995701	10434
2	11406	51.24480287246	10575
2	11423	51.258642749487	10716
2	11682	52.128353717936	10857
2	11992	53.22833785899	10998
2	12302	54.328324658719	11139
2	12608	55.42831766021	11280
2	12907	56.52831766021	11421
2	13206	57.62831766021	11562
2	13360	58.17831766021	11703
2	13659	59.27831766021	11844
2	13958	60.37831766021	11985
2	14257	61.47831766021	12126
2	14556	62.57831766021	12267
2	14717	63.12831766021	12408
2	15016	64.22831766021	12549
2	15315	65.32831766021	12690
2	15614	66.42831766021	12831
2	15913	67.52831766021	12972
2	16212	68.62831766021	13113
2	16366	69.17831766021	13254
2	16665	70.27831766021	13395
2	16964	71.37831766021	13536
2	17263	72.47831766021	13677
2	17562	73.57831766021	13818
2	17723	74.12831766021	13959
2	18022	75.22831766021	14100
2	18321	76.32831766021	14241
2	18620	77.42831766021	14382
2	18919	78.52831766021	14523
2	19218	79.62831766021	14664
2	19372	80.17831766021	14805
2	19671	81.27831766021	14946
2	19970	82.37831766021	15087
2	20269	83.47831766021	15228
2	20568	84.57831766021	15369
2	20729	85.12831766021	15510
2	21028	86.22831766021	15651
2	21327	87.32831766021	15792
2	21626	88.42831766021	15933
2	21925	89.52831766021	16074
3	396	1.142624192201	141
3	415	1.156464192201	282
3	626	1.688032534095	423
3	656	1.701872534095	564
3	875	2.238032534095	705
3	881	2.242624192201	846
3	900	2.256464192201	987
3	910	2.270304192201	1128
3	1345	3.338032534095	1269
3	1351	3.342624192201	1410
3	1367	3.356464192201	1551
3	1582	3.892624192201	1692
3	1609	3.906464192201	1833
3	1826	4.438032534095	1974
3	1832	4.442624192201	2115
3	1851	4.456464192201	2256
3	2054	4.992624192201	2397
3	2305	5.678453385287	2538
3	2509	6.228453385287	2679
3	2919	7.328453385287	2820
3	3114	7.878453385287	2961
3	3320	8.428453385287	3102
3	3330	8.442293385287	3243
3	10688	50.478383411122	3384
3	10698	50.492223272718	3525
3	10723	50.506063134604	3666
3	10733	50.51990299678	3807
3	10743	50.533742859245	3948
3	10753	50.547582722	4089
3	10771	50.575262448376	4230
3	10781	50.589102311996	4371
3	10806	50.602942175903	4512
3	10816	50.616782040098	4653
3	10826	50.630621904579	4794
3	10836	50.644461769346	4935
3	10853	50.658301634399	5076
3	10863	50.672141499737	5217
3	10873	50.68598136536	5358
3	10883	50.699821231268	5499
3	10908	50.71366109746	5640
3	10918	50.727500963935	5781
3	10928	50.741340830693	5922
3	10945	50.755180697734	6063
3	10955	50.769020565057	6204
3	10966	50.796700300549	6345
3	10991	50.810540168717	6486
3	11001	50.824380037165	6627
3	11011	50.838219905893	6768
3	11030	50.8520597749	6909
3	11047	50.865899644187	7050
3	11054	50.879739513753	7191
3	11061	50.893579383597	7332
3	11086	50.907419253719	7473
3	11096	50.921259124118	7614
3	11106	50.935098994794	7755
3	11116	50.948938865747	7896
3	11133	50.962778736976	8037
3	11143	50.976618608481	8178
3	11153	50.990458480261	8319
3	11180	51.004298352315	8460
3	11190	51.018138224644	8601
3	11200	51.031978097247	8742
3	11210	51.045817970124	8883
3	11227	51.059657843273	9024
3	11237	51.073497716695	9165
3	11247	51.08733759039	9306
3	11276	51.101177464356	9447
3	11286	51.115017338593	9588
3	11296	51.128857213101	9729
3	11306	51.142697087879	9870
3	11351	51.189443367026	10011
3	11376	51.203283242983	10152
3	11386	51.217123119208	10293
3	11396	51.230962995701	10434
3	11406	51.24480287246	10575
3	11423	51.258642749487	10716
3	11682	52.128353717936	10857
3	11992	53.22833785899	10998
3	12302	54.328324658719	11139
3	12608	55.42831766021	11280
3	12907	56.52831766021	11421
3	13206	57.62831766021	11562
3	13360	58.17831766021	11703
3	13659	59.27831766021	11844
3	13958	60.37831766021	11985
3	14257	61.47831766021	12126
3	14556	62.57831766021	12267
3	14717	63.12831766021	12408
3	15016	64.22831766021	12549
3	15315	65.32831766021	12690
3	15614	66.42831766021	12831
3	15913	67.52831766021	12972
3	16212	68.62831766021	13113
3	16366	69.17831766021	13254
3	16665	70.27831766021	13395
3	16964	71.37831766021	13536
3	17263	72.47831766021	13677
3	17562	73.57831766021	13818
3	17723	74.12831766021	13959
3	18022	75.22831766021	14100
3	18321	76.32831766021	14241
3	18620	77.42831766021	14382
3	18919	78.52831766021	14523
3	19218	79.62831766021	14664
3	19372	80.17831766021	14805
3	19671	81.27831766021	14946
3	19970	82.37831766021	15087
3	20269	83.47831766021	15228
3	20568	84.57831766021	15369
3	20729	85.12831766021	15510
3	21028	86.22831766021	15651
3	21327	87.32831766021	15792
3	21626	88.42831766021	15933
3	21925	89.52831766021	16074

