version 2
run D-0-20191021-22:42:20-12739
attr configname D
attr datetime 20191021-22:42:20
attr experiment D
attr inifile GwSimV1.ini
attr iterationvars ""
attr iterationvarsf ""
attr measurement ""
attr network NetworkTormV2
attr processid 12739
attr repetition 0
attr replication #0
attr resultdir results
attr runnumber 0
attr seedset 0
param **.mobility.traceFile "\"AllPaths/sPaths/D.movements\""
param **.numNodes 5
param **.application.dataGenerationInterval 1s
param **.application.dataSizeInBytes 10
param **.application.ttl 999999s
param **application.nodesThatGen false
param **application.nodesGenMsg "\"\""
param **application.startMultipleMsg false
param **application.numMultipleMsg 100
param **application.hopsListSize 50
param **.application.endGeneratingMsg 99s
param **.routingLayer "\"RoutingLqeGw\""
param **.routing.maximumCacheSize 5000byte
param **.routing.maximumHopCount 25
param **.routing.useTTL false
param **.routing.waitBFsend 0.1
param **.routing.max_age 999999s
param **.routing.gateway_list "\"\""
param **.routing.actual_gateway "\"\""
param **.routing.gwCheckPeriod 5s
param **.neighboring.resetGPeriod 999s
param **.wirelessIfc.wirelessRange 40m
param **.numNodes 2
param **.application.usedRNG 1
param **.application.dataGenerationInterval 1s
param **.application.dataSizeInBytes 10
param **.application.ttl 999999s
param **application.destinationAddr "\"Wf:00:00:00:00:02\""
param **application.destinationBTAddr "\"Bt:00:00:00:00:02\""
param **application.nodesThatGen true
param **application.nodesGenMsg "\"0\""
param **application.startMultipleMsg true
param **application.numMultipleMsg 100
param **application.hopsListSize 50
param **.application.endGeneratingMsg 999999s
param **.routingLayer "\"RoutingLqeGw\""
param **.routing.maximumCacheSize 5000byte
param **.routing.maximumHopCount 25
param **.routing.useTTL false
param **.routing.waitBFsend 0.1
param **.routing.max_age 999999s
param **.routing.gateway_list "\"\""
param **.routing.actual_gateway "\"\""
param **.routing.gwCheckPeriod 5s
param **.neighboring.antiEntropyInterval 500ms
param **.neighboring.maximumRandomBackoffDuration 1s
param **.neighboring.delayPerDataMsg 0.1
param **neighboring.usedRNG 2
param **.neighboring.GWAddr "\"Wf:00:00:00:00:02\""
param **.neighboring.sendWifiFirst true
param **.neighboring.maxLengthGraph 20
param **.neighboring.max_age 999999s
param **.neighboring.max_absent_time 1s
param **.wirelessIfc.wirelessRange 40m
param **.wirelessIfc.neighbourScanInterval 50ms
param **.wirelessIfc.bandwidthBitRate 100000bps
param **.wirelessIfc.wirelessHeaderSize 32byte
param **.wirelessIfc.minSSI -90
param **.wirelessIfc.limitQueueTime 400ms
param **.wirelessIfc.my_limit_rate 0bps
param **.bluetoothIfc.wirelessRange 40m
param **.bluetoothIfc.neighbourScanInterval 100ms
param **.bluetoothIfc.bandwidthBitRate 100000bps
param **.bluetoothIfc.wirelessHeaderSize 16byte
param **.bluetoothIfc.minSSI -90
param **.mobilityType "\"BonnMotionMobility\""
param **.mobility.traceFile "\"paths/Moves2.movements\""
param **.mobility.is3D false
param **.mobility.nodeId -1

vector 0 NetworkTormV2 neighbourhoodSize:vector ETV
attr source neighbourhoodSize
vector 1 NetworkTormV2 deliveryRatio:vector ETV
attr source sum(totalDataBytesReceived)/sum(totalDataBytesReceivableByAllNodes)
vector 2 NetworkTormV2 dataBytesReceivedSum:vector ETV
attr source sum(dataBytesReceived)
vector 3 NetworkTormV2 totalBytesReceivedSum:vector ETV
attr source sum(totalBytesReceived)
0	16	0.05	1
0	17	0.05	1
0	18	0.05	4
0	19	0.05	1
0	20	0.05	1
0	62	0.1	1
0	64	0.1	1
0	66	0.1	4
0	68	0.1	1
0	70	0.1	1
0	71	0.1	1
0	72	0.1	1
0	73	0.1	4
0	74	0.1	1
0	75	0.1	1
0	131	0.15	1
0	132	0.15	1
0	133	0.15	4
0	134	0.15	1
0	135	0.15	1
0	176	0.2	1
0	177	0.2	1
0	178	0.2	4
0	179	0.2	1
0	180	0.2	1
0	181	0.2	1
0	182	0.2	1
0	183	0.2	4
0	184	0.2	1
0	185	0.2	1
0	236	0.25	1
0	237	0.25	1
0	238	0.25	4
0	239	0.25	1
0	240	0.25	1
0	281	0.3	1
0	282	0.3	1
0	283	0.3	4
0	284	0.3	1
0	285	0.3	1
0	286	0.3	1
0	287	0.3	1
0	288	0.3	4
0	289	0.3	1
0	290	0.3	1
0	341	0.35	1
0	342	0.35	1
0	343	0.35	4
0	344	0.35	1
0	345	0.35	1
0	386	0.4	1
0	387	0.4	1
0	388	0.4	4
0	389	0.4	1
0	390	0.4	1
0	391	0.4	1
0	392	0.4	1
0	393	0.4	4
0	394	0.4	1
0	395	0.4	1
0	446	0.45	1
0	447	0.45	1
0	448	0.45	4
0	449	0.45	1
0	450	0.45	1
0	491	0.5	1
0	492	0.5	1
0	493	0.5	4
0	494	0.5	1
0	495	0.5	1
0	496	0.5	1
0	497	0.5	1
0	498	0.5	4
0	499	0.5	1
0	500	0.5	1
0	551	0.55	1
0	552	0.55	1
0	553	0.55	4
0	554	0.55	1
0	555	0.55	1
0	596	0.6	1
0	597	0.6	1
0	598	0.6	4
0	599	0.6	1
0	600	0.6	1
0	601	0.6	1
0	602	0.6	1
0	603	0.6	4
0	604	0.6	1
0	605	0.6	1
0	656	0.65	1
0	657	0.65	1
0	658	0.65	4
0	659	0.65	1
0	660	0.65	1
0	701	0.7	1
0	702	0.7	1
0	703	0.7	4
0	704	0.7	1
0	705	0.7	1
0	706	0.7	1
0	707	0.7	1
0	708	0.7	4
0	709	0.7	1
0	710	0.7	1
0	761	0.75	1
0	762	0.75	1
0	763	0.75	4
0	764	0.75	1
0	765	0.75	1
0	806	0.8	1
0	807	0.8	1
0	808	0.8	4
0	809	0.8	1
0	810	0.8	1
0	811	0.8	1
0	812	0.8	1
0	813	0.8	4
0	814	0.8	1
0	815	0.8	1
0	866	0.85	1
0	867	0.85	1
0	868	0.85	4
0	869	0.85	1
0	870	0.85	1
0	911	0.9	1
0	912	0.9	1
0	913	0.9	4
0	914	0.9	1
0	915	0.9	1
0	916	0.9	1
0	917	0.9	1
0	918	0.9	4
0	919	0.9	1
0	920	0.9	1
0	971	0.95	1
0	972	0.95	1
0	973	0.95	4
0	974	0.95	1
0	975	0.95	1
0	1016	1	1
0	1017	1	1
0	1018	1	4
0	1019	1	1
0	1020	1	1
0	1021	1	1
0	1022	1	1
0	1023	1	4
0	1024	1	1
0	1025	1	1
0	1076	1.05	1
0	1077	1.05	1
0	1078	1.05	4
0	1079	1.05	1
0	1080	1.05	1
0	1126	1.1	1
0	1127	1.1	1
0	1128	1.1	4
0	1129	1.1	1
0	1130	1.1	1
0	1131	1.1	1
0	1132	1.1	1
0	1133	1.1	4
0	1134	1.1	1
0	1135	1.1	1
0	1249	1.15	1
0	1250	1.15	1
0	1251	1.15	4
0	1252	1.15	1
0	1253	1.15	1
0	1318	1.2	1
0	1319	1.2	1
0	1320	1.2	4
0	1321	1.2	1
0	1322	1.2	1
0	1323	1.2	1
0	1324	1.2	1
0	1325	1.2	4
0	1326	1.2	1
0	1327	1.2	1
0	1378	1.25	1
0	1379	1.25	1
0	1380	1.25	4
0	1381	1.25	1
0	1382	1.25	1
0	1423	1.3	1
0	1424	1.3	1
0	1425	1.3	4
0	1426	1.3	1
0	1427	1.3	1
0	1428	1.3	1
0	1429	1.3	1
0	1430	1.3	4
0	1431	1.3	1
0	1432	1.3	1
0	1483	1.35	1
0	1484	1.35	1
0	1485	1.35	4
0	1486	1.35	1
0	1487	1.35	1
0	1528	1.4	1
0	1529	1.4	1
0	1530	1.4	4
0	1531	1.4	1
0	1532	1.4	1
0	1533	1.4	1
0	1534	1.4	1
0	1535	1.4	4
0	1536	1.4	1
0	1537	1.4	1
0	1588	1.45	1
0	1589	1.45	1
0	1590	1.45	4
0	1591	1.45	1
0	1592	1.45	1
0	1633	1.5	1
0	1634	1.5	1
0	1635	1.5	4
0	1636	1.5	1
0	1637	1.5	1
0	1638	1.5	1
0	1639	1.5	1
0	1640	1.5	4
0	1641	1.5	1
0	1642	1.5	1
0	1693	1.55	1
0	1694	1.55	1
0	1695	1.55	4
0	1696	1.55	1
0	1697	1.55	1
0	1738	1.6	1
0	1739	1.6	1
0	1740	1.6	4
0	1741	1.6	1
0	1742	1.6	1
0	1743	1.6	1
0	1744	1.6	1
0	1745	1.6	4
0	1746	1.6	1
0	1747	1.6	1
0	1798	1.65	1
0	1799	1.65	1
0	1800	1.65	4
0	1801	1.65	1
0	1802	1.65	1
0	1888	1.7	1
0	1889	1.7	1
0	1890	1.7	4
0	1891	1.7	1
0	1892	1.7	1
0	1893	1.7	1
0	1894	1.7	1
0	1895	1.7	4
0	1896	1.7	1
0	1897	1.7	1
0	1948	1.75	1
0	1949	1.75	1
0	1950	1.75	4
0	1951	1.75	1
0	1952	1.75	1
0	1993	1.8	1
0	1994	1.8	1
0	1995	1.8	4
0	1996	1.8	1
0	1997	1.8	1
0	1998	1.8	1
0	1999	1.8	1
0	2000	1.8	4
0	2001	1.8	1
0	2002	1.8	1
0	2081	1.85	1
0	2082	1.85	1
0	2083	1.85	4
0	2084	1.85	1
0	2085	1.85	1
0	2126	1.9	1
0	2127	1.9	1
0	2128	1.9	4
0	2129	1.9	1
0	2130	1.9	1
0	2131	1.9	1
0	2132	1.9	1
0	2133	1.9	4
0	2134	1.9	1
0	2135	1.9	1
0	2186	1.95	1
0	2187	1.95	1
0	2188	1.95	4
0	2189	1.95	1
0	2190	1.95	1
0	2231	2	1
0	2232	2	1
0	2233	2	4
0	2234	2	1
0	2235	2	1
0	2236	2	1
0	2237	2	1
0	2238	2	4
0	2239	2	1
0	2240	2	1
0	2291	2.05	1
0	2292	2.05	1
0	2293	2.05	4
0	2294	2.05	1
0	2295	2.05	1
0	2341	2.1	1
0	2342	2.1	1
0	2343	2.1	4
0	2344	2.1	1
0	2345	2.1	1
0	2346	2.1	1
0	2347	2.1	1
0	2348	2.1	4
0	2349	2.1	1
0	2350	2.1	1
0	2406	2.15	1
0	2407	2.15	1
0	2408	2.15	4
0	2409	2.15	1
0	2410	2.15	1
0	2451	2.2	1
0	2452	2.2	1
0	2453	2.2	4
0	2454	2.2	1
0	2455	2.2	1
0	2456	2.2	1
0	2457	2.2	1
0	2458	2.2	4
0	2459	2.2	1
0	2460	2.2	1
0	2534	2.25	1
0	2535	2.25	1
0	2536	2.25	4
0	2537	2.25	1
0	2538	2.25	1
0	2579	2.3	1
0	2580	2.3	1
0	2581	2.3	4
0	2582	2.3	1
0	2583	2.3	1
0	2584	2.3	1
0	2585	2.3	1
0	2586	2.3	4
0	2587	2.3	1
0	2588	2.3	1
0	2639	2.35	1
0	2640	2.35	1
0	2641	2.35	4
0	2642	2.35	1
0	2643	2.35	1
0	2689	2.4	1
0	2690	2.4	1
0	2691	2.4	4
0	2692	2.4	1
0	2693	2.4	1
0	2694	2.4	1
0	2695	2.4	1
0	2696	2.4	4
0	2697	2.4	1
0	2698	2.4	1
0	2749	2.45	1
0	2750	2.45	1
0	2751	2.45	4
0	2752	2.45	1
0	2753	2.45	1
0	2794	2.5	1
0	2795	2.5	1
0	2796	2.5	4
0	2797	2.5	1
0	2798	2.5	1
0	2799	2.5	1
0	2800	2.5	1
0	2801	2.5	4
0	2802	2.5	1
0	2803	2.5	1
0	2854	2.55	1
0	2855	2.55	1
0	2856	2.55	4
0	2857	2.55	1
0	2858	2.55	1
0	2899	2.6	1
0	2900	2.6	1
0	2901	2.6	4
0	2902	2.6	1
0	2903	2.6	1
0	2904	2.6	1
0	2905	2.6	1
0	2906	2.6	4
0	2907	2.6	1
0	2908	2.6	1
0	2959	2.65	1
0	2960	2.65	1
0	2961	2.65	4
0	2962	2.65	1
0	2963	2.65	1
0	3004	2.7	1
0	3005	2.7	1
0	3006	2.7	4
0	3007	2.7	1
0	3008	2.7	1
0	3009	2.7	1
0	3010	2.7	1
0	3011	2.7	4
0	3012	2.7	1
0	3013	2.7	1
0	3097	2.75	1
0	3098	2.75	1
0	3099	2.75	4
0	3100	2.75	1
0	3101	2.75	1
0	3142	2.8	1
0	3143	2.8	1
0	3144	2.8	4
0	3145	2.8	1
0	3146	2.8	1
0	3147	2.8	1
0	3148	2.8	1
0	3149	2.8	4
0	3150	2.8	1
0	3151	2.8	1
0	3202	2.85	1
0	3203	2.85	1
0	3204	2.85	4
0	3205	2.85	1
0	3206	2.85	1
0	3247	2.9	1
0	3248	2.9	1
0	3249	2.9	4
0	3250	2.9	1
0	3251	2.9	1
0	3252	2.9	1
0	3253	2.9	1
0	3254	2.9	4
0	3255	2.9	1
0	3256	2.9	1
0	3307	2.95	1
0	3308	2.95	1
0	3309	2.95	4
0	3310	2.95	1
0	3311	2.95	1
0	3352	3	1
0	3353	3	1
0	3354	3	4
0	3355	3	1
0	3356	3	1
0	3357	3	1
0	3358	3	1
0	3359	3	4
0	3360	3	1
0	3361	3	1
0	3412	3.05	1
0	3413	3.05	1
0	3414	3.05	4
0	3415	3.05	1
0	3416	3.05	1
0	3462	3.1	1
0	3463	3.1	1
0	3464	3.1	4
0	3465	3.1	1
0	3466	3.1	1
0	3467	3.1	1
0	3468	3.1	1
0	3469	3.1	4
0	3470	3.1	1
0	3471	3.1	1
0	3527	3.15	1
0	3528	3.15	1
0	3529	3.15	4
0	3530	3.15	1
0	3531	3.15	1
0	3572	3.2	1
0	3573	3.2	1
0	3574	3.2	4
0	3575	3.2	1
0	3576	3.2	1
0	3577	3.2	1
0	3578	3.2	1
0	3579	3.2	4
0	3580	3.2	1
0	3581	3.2	1
0	3632	3.25	1
0	3633	3.25	1
0	3634	3.25	4
0	3635	3.25	1
0	3636	3.25	1
0	3710	3.3	1
0	3711	3.3	1
0	3712	3.3	4
0	3713	3.3	1
0	3714	3.3	1
0	3715	3.3	1
0	3716	3.3	1
0	3717	3.3	4
0	3718	3.3	1
0	3719	3.3	1
0	3770	3.35	1
0	3771	3.35	1
0	3772	3.35	4
0	3773	3.35	1
0	3774	3.35	1
0	3815	3.4	1
0	3816	3.4	1
0	3817	3.4	4
0	3818	3.4	1
0	3819	3.4	1
0	3820	3.4	1
0	3821	3.4	1
0	3822	3.4	4
0	3823	3.4	1
0	3824	3.4	1
0	3921	3.45	1
0	3922	3.45	1
0	3923	3.45	4
0	3924	3.45	1
0	3925	3.45	1
0	3966	3.5	1
0	3967	3.5	1
0	3968	3.5	4
0	3969	3.5	1
0	3970	3.5	1
0	3971	3.5	1
0	3972	3.5	1
0	3973	3.5	4
0	3974	3.5	1
0	3975	3.5	1
0	4026	3.55	1
0	4027	3.55	1
0	4028	3.55	4
0	4029	3.55	1
0	4030	3.55	1
0	4071	3.6	1
0	4072	3.6	1
0	4073	3.6	4
0	4074	3.6	1
0	4075	3.6	1
0	4076	3.6	1
0	4077	3.6	1
0	4078	3.6	4
0	4079	3.6	1
0	4080	3.6	1
0	4131	3.65	1
0	4132	3.65	1
0	4133	3.65	4
0	4134	3.65	1
0	4135	3.65	1
0	4176	3.7	1
0	4177	3.7	1
0	4178	3.7	4
0	4179	3.7	1
0	4180	3.7	1
0	4181	3.7	1
0	4182	3.7	1
0	4183	3.7	4
0	4184	3.7	1
0	4185	3.7	1
0	4236	3.75	1
0	4237	3.75	1
0	4238	3.75	4
0	4239	3.75	1
0	4240	3.75	1
0	4281	3.8	1
0	4282	3.8	1
0	4283	3.8	4
0	4284	3.8	1
0	4285	3.8	1
0	4286	3.8	1
0	4287	3.8	1
0	4288	3.8	4
0	4289	3.8	1
0	4290	3.8	1
0	4356	3.85	1
0	4357	3.85	1
0	4358	3.85	4
0	4359	3.85	1
0	4360	3.85	1
0	4401	3.9	1
0	4402	3.9	1
0	4403	3.9	4
0	4404	3.9	1
0	4405	3.9	1
0	4406	3.9	1
0	4407	3.9	1
0	4408	3.9	4
0	4409	3.9	1
0	4410	3.9	1
0	4461	3.95	1
0	4462	3.95	1
0	4463	3.95	4
0	4464	3.95	1
0	4465	3.95	1
0	4529	4	1
0	4530	4	1
0	4531	4	4
0	4532	4	1
0	4533	4	1
0	4534	4	1
0	4535	4	1
0	4536	4	4
0	4537	4	1
0	4538	4	1
0	4589	4.05	1
0	4590	4.05	1
0	4591	4.05	4
0	4592	4.05	1
0	4593	4.05	1
0	4639	4.1	1
0	4640	4.1	1
0	4641	4.1	4
0	4642	4.1	1
0	4643	4.1	1
0	4644	4.1	1
0	4645	4.1	1
0	4646	4.1	4
0	4647	4.1	1
0	4648	4.1	1
0	4704	4.15	1
0	4705	4.15	1
0	4706	4.15	4
0	4707	4.15	1
0	4708	4.15	1
0	4749	4.2	1
0	4750	4.2	1
0	4751	4.2	4
0	4752	4.2	1
0	4753	4.2	1
0	4754	4.2	1
0	4755	4.2	1
0	4756	4.2	4
0	4757	4.2	1
0	4758	4.2	1
0	4809	4.25	1
0	4810	4.25	1
0	4811	4.25	4
0	4812	4.25	1
0	4813	4.25	1
0	4854	4.3	1
0	4855	4.3	1
0	4856	4.3	4
0	4857	4.3	1
0	4858	4.3	1
0	4859	4.3	1
0	4860	4.3	1
0	4861	4.3	4
0	4862	4.3	1
0	4863	4.3	1
0	4937	4.35	1
0	4938	4.35	1
0	4939	4.35	4
0	4940	4.35	1
0	4941	4.35	1
0	4987	4.4	1
0	4988	4.4	1
0	4989	4.4	4
0	4990	4.4	1
0	4991	4.4	1
0	4992	4.4	1
0	4993	4.4	1
0	4994	4.4	4
0	4995	4.4	1
0	4996	4.4	1
0	5047	4.45	1
0	5048	4.45	1
0	5049	4.45	4
0	5050	4.45	1
0	5051	4.45	1
0	5115	4.5	1
0	5116	4.5	1
0	5117	4.5	4
0	5118	4.5	1
0	5119	4.5	1
0	5120	4.5	1
0	5121	4.5	1
0	5122	4.5	4
0	5123	4.5	1
0	5124	4.5	1
0	5175	4.55	1
0	5176	4.55	1
0	5177	4.55	4
0	5178	4.55	1
0	5179	4.55	1
0	5220	4.6	1
0	5221	4.6	1
0	5222	4.6	4
0	5223	4.6	1
0	5224	4.6	1
0	5225	4.6	1
0	5226	4.6	1
0	5227	4.6	4
0	5228	4.6	1
0	5229	4.6	1
0	5280	4.65	1
0	5281	4.65	1
0	5282	4.65	4
0	5283	4.65	1
0	5284	4.65	1
0	5325	4.7	1
0	5326	4.7	1
0	5327	4.7	4
0	5328	4.7	1
0	5329	4.7	1
0	5330	4.7	1
0	5331	4.7	1
0	5332	4.7	4
0	5333	4.7	1
0	5334	4.7	1
0	5385	4.75	1
0	5386	4.75	1
0	5387	4.75	4
0	5388	4.75	1
0	5389	4.75	1
0	5430	4.8	1
0	5431	4.8	1
0	5432	4.8	4
0	5433	4.8	1
0	5434	4.8	1
0	5435	4.8	1
0	5436	4.8	1
0	5437	4.8	4
0	5438	4.8	1
0	5439	4.8	1
0	5490	4.85	1
0	5491	4.85	1
0	5492	4.85	4
0	5493	4.85	1
0	5494	4.85	1
0	5540	4.9	1
0	5541	4.9	1
0	5542	4.9	4
0	5543	4.9	1
0	5544	4.9	1
0	5545	4.9	1
0	5546	4.9	1
0	5547	4.9	4
0	5548	4.9	1
0	5549	4.9	1
0	5600	4.95	1
0	5601	4.95	1
0	5602	4.95	4
0	5603	4.95	1
0	5604	4.95	1
0	5678	5	1
0	5679	5	1
0	5680	5	4
0	5681	5	1
0	5682	5	1
0	5683	5	1
0	5684	5	1
0	5685	5	4
0	5686	5	1
0	5687	5	1
0	5738	5.05	1
0	5739	5.05	1
0	5740	5.05	4
0	5741	5.05	1
0	5742	5.05	1
0	5788	5.1	1
0	5789	5.1	1
0	5790	5.1	4
0	5791	5.1	1
0	5792	5.1	1
0	5793	5.1	1
0	5794	5.1	1
0	5795	5.1	4
0	5796	5.1	1
0	5797	5.1	1
0	5870	5.15	1
0	5871	5.15	1
0	5872	5.15	4
0	5873	5.15	1
0	5874	5.15	1
0	5915	5.2	1
0	5916	5.2	1
0	5917	5.2	4
0	5918	5.2	1
0	5919	5.2	1
0	5920	5.2	1
0	5921	5.2	1
0	5922	5.2	4
0	5923	5.2	1
0	5924	5.2	1
0	5975	5.25	1
0	5976	5.25	1
0	5977	5.25	4
0	5978	5.25	1
0	5979	5.25	1
0	6020	5.3	1
0	6021	5.3	1
0	6022	5.3	4
0	6023	5.3	1
0	6024	5.3	1
0	6025	5.3	1
0	6026	5.3	1
0	6027	5.3	4
0	6028	5.3	1
0	6029	5.3	1
0	6080	5.35	1
0	6081	5.35	1
0	6082	5.35	4
0	6083	5.35	1
0	6084	5.35	1
0	6125	5.4	1
0	6126	5.4	1
0	6127	5.4	4
0	6128	5.4	1
0	6129	5.4	1
0	6130	5.4	1
0	6131	5.4	1
0	6132	5.4	4
0	6133	5.4	1
0	6134	5.4	1
0	6208	5.45	1
0	6209	5.45	1
0	6210	5.45	4
0	6211	5.45	1
0	6212	5.45	1
0	6258	5.5	1
0	6259	5.5	1
0	6260	5.5	4
0	6261	5.5	1
0	6262	5.5	1
0	6263	5.5	1
0	6264	5.5	1
0	6265	5.5	4
0	6266	5.5	1
0	6267	5.5	1
0	6328	5.55	1
0	6329	5.55	1
0	6330	5.55	4
0	6331	5.55	1
0	6332	5.55	1
0	6390	5.6	1
0	6391	5.6	1
0	6392	5.6	4
0	6393	5.6	1
0	6394	5.6	1
0	6395	5.6	1
0	6396	5.6	1
0	6397	5.6	4
0	6398	5.6	1
0	6399	5.6	1
0	6450	5.65	1
0	6451	5.65	1
0	6452	5.65	4
0	6453	5.65	1
0	6454	5.65	1
0	6495	5.7	1
0	6496	5.7	1
0	6497	5.7	4
0	6498	5.7	1
0	6499	5.7	1
0	6500	5.7	1
0	6501	5.7	1
0	6502	5.7	4
0	6503	5.7	1
0	6504	5.7	1
0	6555	5.75	1
0	6556	5.75	1
0	6557	5.75	4
0	6558	5.75	1
0	6559	5.75	1
0	6600	5.8	1
0	6601	5.8	1
0	6602	5.8	4
0	6603	5.8	1
0	6604	5.8	1
0	6605	5.8	1
0	6606	5.8	1
0	6607	5.8	4
0	6608	5.8	1
0	6609	5.8	1
0	6660	5.85	1
0	6661	5.85	1
0	6662	5.85	4
0	6663	5.85	1
0	6664	5.85	1
0	6705	5.9	1
0	6706	5.9	1
0	6707	5.9	4
0	6708	5.9	1
0	6709	5.9	1
0	6710	5.9	1
0	6711	5.9	1
0	6712	5.9	4
0	6713	5.9	1
0	6714	5.9	1
0	6765	5.95	1
0	6766	5.95	1
0	6767	5.95	4
0	6768	5.95	1
0	6769	5.95	1
0	6825	6	1
0	6826	6	1
0	6827	6	4
0	6828	6	1
0	6829	6	1
0	6830	6	1
0	6831	6	1
0	6832	6	4
0	6833	6	1
0	6834	6	1
0	6885	6.05	1
0	6886	6.05	1
0	6887	6.05	4
0	6888	6.05	1
0	6889	6.05	1
0	6940	6.1	1
0	6941	6.1	1
0	6942	6.1	4
0	6943	6.1	1
0	6944	6.1	1
0	6945	6.1	1
0	6946	6.1	1
0	6947	6.1	4
0	6948	6.1	1
0	6949	6.1	1
0	7005	6.15	1
0	7006	6.15	1
0	7007	6.15	4
0	7008	6.15	1
0	7009	6.15	1
0	7050	6.2	1
0	7051	6.2	1
0	7052	6.2	4
0	7053	6.2	1
0	7054	6.2	1
0	7055	6.2	1
0	7056	6.2	1
0	7057	6.2	4
0	7058	6.2	1
0	7059	6.2	1
0	7110	6.25	1
0	7111	6.25	1
0	7112	6.25	4
0	7113	6.25	1
0	7114	6.25	1
0	7155	6.3	1
0	7156	6.3	1
0	7157	6.3	4
0	7158	6.3	1
0	7159	6.3	1
0	7160	6.3	1
0	7161	6.3	1
0	7162	6.3	4
0	7163	6.3	1
0	7164	6.3	1
0	7215	6.35	1
0	7216	6.35	1
0	7217	6.35	4
0	7218	6.35	1
0	7219	6.35	1
0	7260	6.4	1
0	7261	6.4	1
0	7262	6.4	4
0	7263	6.4	1
0	7264	6.4	1
0	7265	6.4	1
0	7266	6.4	1
0	7267	6.4	4
0	7268	6.4	1
0	7269	6.4	1
0	7320	6.45	1
0	7321	6.45	1
0	7322	6.45	4
0	7323	6.45	1
0	7324	6.45	1
0	7375	6.5	1
0	7376	6.5	1
0	7377	6.5	4
0	7378	6.5	1
0	7379	6.5	1
0	7380	6.5	1
0	7381	6.5	1
0	7382	6.5	4
0	7383	6.5	1
0	7384	6.5	1
0	7435	6.55	1
0	7436	6.55	1
0	7437	6.55	4
0	7438	6.55	1
0	7439	6.55	1
0	7480	6.6	1
0	7481	6.6	1
0	7482	6.6	4
0	7483	6.6	1
0	7484	6.6	1
0	7485	6.6	1
0	7486	6.6	1
0	7487	6.6	4
0	7488	6.6	1
0	7489	6.6	1
0	7540	6.65	1
0	7541	6.65	1
0	7542	6.65	4
0	7543	6.65	1
0	7544	6.65	1
0	7585	6.7	1
0	7586	6.7	1
0	7587	6.7	4
0	7588	6.7	1
0	7589	6.7	1
0	7590	6.7	1
0	7591	6.7	1
0	7592	6.7	4
0	7593	6.7	1
0	7594	6.7	1
0	7696	6.75	1
0	7697	6.75	1
0	7698	6.75	4
0	7699	6.75	1
0	7700	6.75	1
0	7806	6.8	1
0	7807	6.8	1
0	7808	6.8	4
0	7809	6.8	1
0	7810	6.8	1
0	7811	6.8	1
0	7812	6.8	1
0	7813	6.8	4
0	7814	6.8	1
0	7815	6.8	1
0	7872	6.85	1
0	7873	6.85	1
0	7874	6.85	4
0	7875	6.85	1
0	7876	6.85	1
0	7940	6.9	1
0	7941	6.9	1
0	7942	6.9	4
0	7943	6.9	1
0	7944	6.9	1
0	7945	6.9	1
0	7946	6.9	1
0	7947	6.9	4
0	7948	6.9	1
0	7949	6.9	1
0	8000	6.95	1
0	8001	6.95	1
0	8002	6.95	4
0	8003	6.95	1
0	8004	6.95	1
0	8050	7	1
0	8051	7	1
0	8052	7	4
0	8053	7	1
0	8054	7	1
0	8055	7	1
0	8056	7	1
0	8057	7	4
0	8058	7	1
0	8059	7	1
0	8110	7.05	1
0	8111	7.05	1
0	8112	7.05	4
0	8113	7.05	1
0	8114	7.05	1
0	8160	7.1	1
0	8161	7.1	1
0	8162	7.1	4
0	8163	7.1	1
0	8164	7.1	1
0	8165	7.1	1
0	8166	7.1	1
0	8167	7.1	4
0	8168	7.1	1
0	8169	7.1	1
0	8231	7.15	1
0	8232	7.15	1
0	8233	7.15	4
0	8234	7.15	1
0	8235	7.15	1
0	8293	7.2	1
0	8294	7.2	1
0	8295	7.2	4
0	8296	7.2	1
0	8297	7.2	1
0	8298	7.2	1
0	8299	7.2	1
0	8300	7.2	4
0	8301	7.2	1
0	8302	7.2	1
0	8353	7.25	1
0	8354	7.25	1
0	8355	7.25	4
0	8356	7.25	1
0	8357	7.25	1
0	8443	7.3	1
0	8444	7.3	1
0	8445	7.3	4
0	8446	7.3	1
0	8447	7.3	1
0	8448	7.3	1
0	8449	7.3	1
0	8450	7.3	4
0	8451	7.3	1
0	8452	7.3	1
0	8517	7.35	1
0	8518	7.35	1
0	8519	7.35	4
0	8520	7.35	1
0	8521	7.35	1
0	8562	7.4	1
0	8563	7.4	1
0	8564	7.4	4
0	8565	7.4	1
0	8566	7.4	1
0	8567	7.4	1
0	8568	7.4	1
0	8569	7.4	4
0	8570	7.4	1
0	8571	7.4	1
0	8645	7.45	1
0	8646	7.45	1
0	8647	7.45	4
0	8648	7.45	1
0	8649	7.45	1
0	8690	7.5	1
0	8691	7.5	1
0	8692	7.5	4
0	8693	7.5	1
0	8694	7.5	1
0	8695	7.5	1
0	8696	7.5	1
0	8697	7.5	4
0	8698	7.5	1
0	8699	7.5	1
0	8750	7.55	1
0	8751	7.55	1
0	8752	7.55	4
0	8753	7.55	1
0	8754	7.55	1
0	8812	7.6	1
0	8813	7.6	1
0	8814	7.6	4
0	8815	7.6	1
0	8816	7.6	1
0	8817	7.6	1
0	8818	7.6	1
0	8819	7.6	4
0	8820	7.6	1
0	8821	7.6	1
0	8872	7.65	1
0	8873	7.65	1
0	8874	7.65	4
0	8875	7.65	1
0	8876	7.65	1
0	8962	7.7	1
0	8963	7.7	1
0	8964	7.7	4
0	8965	7.7	1
0	8966	7.7	1
0	8967	7.7	1
0	8968	7.7	1
0	8969	7.7	4
0	8970	7.7	1
0	8971	7.7	1
0	9075	7.75	1
0	9076	7.75	1
0	9077	7.75	4
0	9078	7.75	1
0	9079	7.75	1
0	9140	7.8	1
0	9141	7.8	1
0	9142	7.8	4
0	9143	7.8	1
0	9144	7.8	1
0	9145	7.8	1
0	9146	7.8	1
0	9147	7.8	4
0	9148	7.8	1
0	9149	7.8	1
0	9228	7.85	1
0	9229	7.85	1
0	9230	7.85	4
0	9231	7.85	1
0	9232	7.85	1
0	9273	7.9	1
0	9274	7.9	1
0	9275	7.9	4
0	9276	7.9	1
0	9277	7.9	1
0	9278	7.9	1
0	9279	7.9	1
0	9280	7.9	4
0	9281	7.9	1
0	9282	7.9	1
0	9333	7.95	1
0	9334	7.95	1
0	9335	7.95	4
0	9336	7.95	1
0	9337	7.95	1
0	9378	8	1
0	9379	8	1
0	9380	8	4
0	9381	8	1
0	9382	8	1
0	9383	8	1
0	9384	8	1
0	9385	8	4
0	9386	8	1
0	9387	8	1
0	9438	8.05	1
0	9439	8.05	1
0	9440	8.05	4
0	9441	8.05	1
0	9442	8.05	1
0	9488	8.1	1
0	9489	8.1	1
0	9490	8.1	4
0	9491	8.1	1
0	9492	8.1	1
0	9493	8.1	1
0	9494	8.1	1
0	9495	8.1	4
0	9496	8.1	1
0	9497	8.1	1
0	9571	8.15	1
0	9572	8.15	1
0	9573	8.15	4
0	9574	8.15	1
0	9575	8.15	1
0	9672	8.2	1
0	9673	8.2	1
0	9674	8.2	4
0	9675	8.2	1
0	9676	8.2	1
0	9677	8.2	1
0	9678	8.2	1
0	9679	8.2	4
0	9680	8.2	1
0	9681	8.2	1
0	9768	8.25	1
0	9769	8.25	1
0	9770	8.25	4
0	9771	8.25	1
0	9772	8.25	1
0	9866	8.3	1
0	9867	8.3	1
0	9868	8.3	4
0	9869	8.3	1
0	9870	8.3	1
0	9871	8.3	1
0	9872	8.3	1
0	9873	8.3	4
0	9874	8.3	1
0	9875	8.3	1
0	9926	8.35	1
0	9927	8.35	1
0	9928	8.35	4
0	9929	8.35	1
0	9930	8.35	1
0	9976	8.4	1
0	9977	8.4	1
0	9978	8.4	4
0	9979	8.4	1
0	9980	8.4	1
0	9981	8.4	1
0	9982	8.4	1
0	9983	8.4	4
0	9984	8.4	1
0	9985	8.4	1
0	10036	8.45	1
0	10037	8.45	1
0	10038	8.45	4
0	10039	8.45	1
0	10040	8.45	1
0	10081	8.5	1
0	10082	8.5	1
0	10083	8.5	4
0	10084	8.5	1
0	10085	8.5	1
0	10086	8.5	1
0	10087	8.5	1
0	10088	8.5	4
0	10089	8.5	1
0	10090	8.5	1
0	10141	8.55	1
0	10142	8.55	1
0	10143	8.55	4
0	10144	8.55	1
0	10145	8.55	1
0	10186	8.6	1
0	10187	8.6	1
0	10188	8.6	4
0	10189	8.6	1
0	10190	8.6	1
0	10191	8.6	1
0	10192	8.6	1
0	10193	8.6	4
0	10194	8.6	1
0	10195	8.6	1
0	10246	8.65	1
0	10247	8.65	1
0	10248	8.65	4
0	10249	8.65	1
0	10250	8.65	1
0	10346	8.7	1
0	10347	8.7	1
0	10348	8.7	4
0	10349	8.7	1
0	10350	8.7	1
0	10351	8.7	1
0	10352	8.7	1
0	10353	8.7	4
0	10354	8.7	1
0	10355	8.7	1
0	10440	8.75	1
0	10441	8.75	1
0	10442	8.75	4
0	10443	8.75	1
0	10444	8.75	1
0	10595	8.8	1
0	10596	8.8	1
0	10597	8.8	4
0	10598	8.8	1
0	10599	8.8	1
0	10600	8.8	1
0	10601	8.8	1
0	10602	8.8	4
0	10603	8.8	1
0	10604	8.8	1
0	10738	8.85	1
0	10739	8.85	1
0	10740	8.85	4
0	10741	8.85	1
0	10742	8.85	1
0	10811	8.9	1
0	10812	8.9	1
0	10813	8.9	4
0	10814	8.9	1
0	10815	8.9	1
0	10816	8.9	1
0	10817	8.9	1
0	10818	8.9	4
0	10819	8.9	1
0	10820	8.9	1
0	10894	8.95	1
0	10895	8.95	1
0	10896	8.95	4
0	10897	8.95	1
0	10898	8.95	1
0	10939	9	1
0	10940	9	1
0	10941	9	4
0	10942	9	1
0	10943	9	1
0	10944	9	1
0	10945	9	1
0	10946	9	4
0	10947	9	1
0	10948	9	1
0	11016	9.05	1
0	11017	9.05	1
0	11018	9.05	4
0	11019	9.05	1
0	11020	9.05	1
0	11066	9.1	1
0	11067	9.1	1
0	11068	9.1	4
0	11069	9.1	1
0	11070	9.1	1
0	11071	9.1	1
0	11072	9.1	1
0	11073	9.1	4
0	11074	9.1	1
0	11075	9.1	1
0	11132	9.15	1
0	11133	9.15	1
0	11134	9.15	4
0	11135	9.15	1
0	11136	9.15	1
0	11226	9.2	1
0	11227	9.2	1
0	11228	9.2	4
0	11229	9.2	1
0	11230	9.2	1
0	11231	9.2	1
0	11232	9.2	1
0	11233	9.2	4
0	11234	9.2	1
0	11235	9.2	1
0	11383	9.25	1
0	11384	9.25	1
0	11385	9.25	4
0	11386	9.25	1
0	11387	9.25	1
0	11491	9.3	1
0	11492	9.3	1
0	11493	9.3	4
0	11494	9.3	1
0	11495	9.3	1
0	11496	9.3	1
0	11497	9.3	1
0	11498	9.3	4
0	11499	9.3	1
0	11500	9.3	1
0	11652	9.35	1
0	11653	9.35	1
0	11654	9.35	4
0	11655	9.35	1
0	11656	9.35	1
0	11753	9.4	1
0	11754	9.4	1
0	11755	9.4	4
0	11756	9.4	1
0	11757	9.4	1
0	11758	9.4	1
0	11759	9.4	1
0	11760	9.4	4
0	11761	9.4	1
0	11762	9.4	1
0	11832	9.45	1
0	11833	9.45	1
0	11834	9.45	4
0	11835	9.45	1
0	11836	9.45	1
0	11900	9.5	1
0	11901	9.5	1
0	11902	9.5	4
0	11903	9.5	1
0	11904	9.5	1
0	11905	9.5	1
0	11906	9.5	1
0	11907	9.5	4
0	11908	9.5	1
0	11909	9.5	1
0	11960	9.55	1
0	11961	9.55	1
0	11962	9.55	4
0	11963	9.55	1
0	11964	9.55	1
0	12022	9.6	1
0	12023	9.6	1
0	12024	9.6	4
0	12025	9.6	1
0	12026	9.6	1
0	12027	9.6	1
0	12028	9.6	1
0	12029	9.6	4
0	12030	9.6	1
0	12031	9.6	1
0	12082	9.65	1
0	12083	9.65	1
0	12084	9.65	4
0	12085	9.65	1
0	12086	9.65	1
0	12127	9.7	1
0	12128	9.7	1
0	12129	9.7	4
0	12130	9.7	1
0	12131	9.7	1
0	12132	9.7	1
0	12133	9.7	1
0	12134	9.7	4
0	12135	9.7	1
0	12136	9.7	1
0	12192	9.75	1
0	12193	9.75	1
0	12194	9.75	4
0	12195	9.75	1
0	12196	9.75	1
0	12301	9.8	1
0	12302	9.8	1
0	12303	9.8	4
0	12304	9.8	1
0	12305	9.8	1
0	12306	9.8	1
0	12307	9.8	1
0	12308	9.8	4
0	12309	9.8	1
0	12310	9.8	1
0	12373	9.85	1
0	12374	9.85	1
0	12375	9.85	4
0	12376	9.85	1
0	12377	9.85	1
0	12459	9.9	1
0	12460	9.9	1
0	12461	9.9	4
0	12462	9.9	1
0	12463	9.9	1
0	12464	9.9	1
0	12465	9.9	1
0	12466	9.9	4
0	12467	9.9	1
0	12468	9.9	1
0	12549	9.95	1
0	12550	9.95	1
0	12551	9.95	4
0	12552	9.95	1
0	12553	9.95	1
0	12594	10	1
0	12595	10	1
0	12596	10	4
0	12597	10	1
0	12598	10	1
0	12599	10	1
0	12600	10	1
0	12601	10	4
0	12602	10	1
0	12603	10	1
0	12659	10.05	1
0	12660	10.05	1
0	12661	10.05	4
0	12662	10.05	1
0	12663	10.05	1
0	12709	10.1	1
0	12710	10.1	1
0	12711	10.1	4
0	12712	10.1	1
0	12713	10.1	1
0	12714	10.1	1
0	12715	10.1	1
0	12716	10.1	4
0	12717	10.1	1
0	12718	10.1	1
0	12775	10.15	1
0	12776	10.15	1
0	12777	10.15	4
0	12778	10.15	1
0	12779	10.15	1
0	12820	10.2	1
0	12821	10.2	1
0	12822	10.2	4
0	12823	10.2	1
0	12824	10.2	1
0	12825	10.2	1
0	12826	10.2	1
0	12827	10.2	4
0	12828	10.2	1
0	12829	10.2	1
0	12880	10.25	1
0	12881	10.25	1
0	12882	10.25	4
0	12883	10.25	1
0	12884	10.25	1
0	12925	10.3	1
0	12926	10.3	1
0	12927	10.3	4
0	12928	10.3	1
0	12929	10.3	1
0	12930	10.3	1
0	12931	10.3	1
0	12932	10.3	4
0	12933	10.3	1
0	12934	10.3	1
0	13002	10.35	1
0	13003	10.35	1
0	13004	10.35	4
0	13005	10.35	1
0	13006	10.35	1
0	13047	10.4	1
0	13048	10.4	1
0	13049	10.4	4
0	13050	10.4	1
0	13051	10.4	1
0	13052	10.4	1
0	13053	10.4	1
0	13054	10.4	4
0	13055	10.4	1
0	13056	10.4	1
0	13107	10.45	1
0	13108	10.45	1
0	13109	10.45	4
0	13110	10.45	1
0	13111	10.45	1
0	13157	10.5	1
0	13158	10.5	1
0	13159	10.5	4
0	13160	10.5	1
0	13161	10.5	1
0	13162	10.5	1
0	13163	10.5	1
0	13164	10.5	4
0	13165	10.5	1
0	13166	10.5	1
0	13217	10.55	1
0	13218	10.55	1
0	13219	10.55	4
0	13220	10.55	1
0	13221	10.55	1
0	13262	10.6	1
0	13263	10.6	1
0	13264	10.6	4
0	13265	10.6	1
0	13266	10.6	1
0	13267	10.6	1
0	13268	10.6	1
0	13269	10.6	4
0	13270	10.6	1
0	13271	10.6	1
0	13322	10.65	1
0	13323	10.65	1
0	13324	10.65	4
0	13325	10.65	1
0	13326	10.65	1
0	13367	10.7	1
0	13368	10.7	1
0	13369	10.7	4
0	13370	10.7	1
0	13371	10.7	1
0	13372	10.7	1
0	13373	10.7	1
0	13374	10.7	4
0	13375	10.7	1
0	13376	10.7	1
0	13427	10.75	1
0	13428	10.75	1
0	13429	10.75	4
0	13430	10.75	1
0	13431	10.75	1
0	13472	10.8	1
0	13473	10.8	1
0	13474	10.8	4
0	13475	10.8	1
0	13476	10.8	1
0	13477	10.8	1
0	13478	10.8	1
0	13479	10.8	4
0	13480	10.8	1
0	13481	10.8	1
0	13532	10.85	1
0	13533	10.85	1
0	13534	10.85	4
0	13535	10.85	1
0	13536	10.85	1
0	13577	10.9	1
0	13578	10.9	1
0	13579	10.9	4
0	13580	10.9	1
0	13581	10.9	1
0	13582	10.9	1
0	13583	10.9	1
0	13584	10.9	4
0	13585	10.9	1
0	13586	10.9	1
0	13637	10.95	1
0	13638	10.95	1
0	13639	10.95	4
0	13640	10.95	1
0	13641	10.95	1
0	13682	11	1
0	13683	11	1
0	13684	11	4
0	13685	11	1
0	13686	11	1
0	13687	11	1
0	13688	11	1
0	13689	11	4
0	13690	11	1
0	13691	11	1
0	13742	11.05	1
0	13743	11.05	1
0	13744	11.05	4
0	13745	11.05	1
0	13746	11.05	1
0	13792	11.1	1
0	13793	11.1	1
0	13794	11.1	4
0	13795	11.1	1
0	13796	11.1	1
0	13797	11.1	1
0	13798	11.1	1
0	13799	11.1	4
0	13800	11.1	1
0	13801	11.1	1
0	13858	11.15	1
0	13859	11.15	1
0	13860	11.15	4
0	13861	11.15	1
0	13862	11.15	1
0	13926	11.2	1
0	13927	11.2	1
0	13928	11.2	4
0	13929	11.2	1
0	13930	11.2	1
0	13931	11.2	1
0	13932	11.2	1
0	13933	11.2	4
0	13934	11.2	1
0	13935	11.2	1
0	13986	11.25	1
0	13987	11.25	1
0	13988	11.25	4
0	13989	11.25	1
0	13990	11.25	1
0	14031	11.3	1
0	14032	11.3	1
0	14033	11.3	4
0	14034	11.3	1
0	14035	11.3	1
0	14036	11.3	1
0	14037	11.3	1
0	14038	11.3	4
0	14039	11.3	1
0	14040	11.3	1
0	14154	11.35	1
0	14155	11.35	1
0	14156	11.35	4
0	14157	11.35	1
0	14158	11.35	1
0	14264	11.4	1
0	14265	11.4	1
0	14266	11.4	4
0	14267	11.4	1
0	14268	11.4	1
0	14269	11.4	1
0	14270	11.4	1
0	14271	11.4	4
0	14272	11.4	1
0	14273	11.4	1
0	14324	11.45	1
0	14325	11.45	1
0	14326	11.45	4
0	14327	11.45	1
0	14328	11.45	1
0	14420	11.5	1
0	14421	11.5	1
0	14422	11.5	4
0	14423	11.5	1
0	14424	11.5	1
0	14425	11.5	1
0	14426	11.5	1
0	14427	11.5	4
0	14428	11.5	1
0	14429	11.5	1
0	14522	11.55	1
0	14523	11.55	1
0	14524	11.55	4
0	14525	11.55	1
0	14526	11.55	1
0	14567	11.6	1
0	14568	11.6	1
0	14569	11.6	4
0	14570	11.6	1
0	14571	11.6	1
0	14572	11.6	1
0	14573	11.6	1
0	14574	11.6	4
0	14575	11.6	1
0	14576	11.6	1
0	14650	11.65	1
0	14651	11.65	1
0	14652	11.65	4
0	14653	11.65	1
0	14654	11.65	1
0	14695	11.7	1
0	14696	11.7	1
0	14697	11.7	4
0	14698	11.7	1
0	14699	11.7	1
0	14700	11.7	1
0	14701	11.7	1
0	14702	11.7	4
0	14703	11.7	1
0	14704	11.7	1
0	14760	11.75	1
0	14761	11.75	1
0	14762	11.75	4
0	14763	11.75	1
0	14764	11.75	1
0	14805	11.8	1
0	14806	11.8	1
0	14807	11.8	4
0	14808	11.8	1
0	14809	11.8	1
0	14810	11.8	1
0	14811	11.8	1
0	14812	11.8	4
0	14813	11.8	1
0	14814	11.8	1
0	14865	11.85	1
0	14866	11.85	1
0	14867	11.85	4
0	14868	11.85	1
0	14869	11.85	1
0	14910	11.9	1
0	14911	11.9	1
0	14912	11.9	4
0	14913	11.9	1
0	14914	11.9	1
0	14915	11.9	1
0	14916	11.9	1
0	14917	11.9	4
0	14918	11.9	1
0	14919	11.9	1
0	15043	11.95	1
0	15044	11.95	1
0	15045	11.95	4
0	15046	11.95	1
0	15047	11.95	1
0	15137	12	1
0	15138	12	1
0	15139	12	4
0	15140	12	1
0	15141	12	1
0	15142	12	1
0	15143	12	1
0	15144	12	4
0	15145	12	1
0	15146	12	1
0	15220	12.05	1
0	15221	12.05	1
0	15222	12.05	4
0	15223	12.05	1
0	15224	12.05	1
0	15292	12.1	1
0	15293	12.1	1
0	15294	12.1	4
0	15295	12.1	1
0	15296	12.1	1
0	15297	12.1	1
0	15298	12.1	1
0	15299	12.1	4
0	15300	12.1	1
0	15301	12.1	1
0	15358	12.15	1
0	15359	12.15	1
0	15360	12.15	4
0	15361	12.15	1
0	15362	12.15	1
0	15426	12.2	1
0	15427	12.2	1
0	15428	12.2	4
0	15429	12.2	1
0	15430	12.2	1
0	15431	12.2	1
0	15432	12.2	1
0	15433	12.2	4
0	15434	12.2	1
0	15435	12.2	1
0	15486	12.25	1
0	15487	12.25	1
0	15488	12.25	4
0	15489	12.25	1
0	15490	12.25	1
0	15531	12.3	1
0	15532	12.3	1
0	15533	12.3	4
0	15534	12.3	1
0	15535	12.3	1
0	15536	12.3	1
0	15537	12.3	1
0	15538	12.3	4
0	15539	12.3	1
0	15540	12.3	1
0	15591	12.35	1
0	15592	12.35	1
0	15593	12.35	4
0	15594	12.35	1
0	15595	12.35	1
0	15636	12.4	1
0	15637	12.4	1
0	15638	12.4	4
0	15639	12.4	1
0	15640	12.4	1
0	15641	12.4	1
0	15642	12.4	1
0	15643	12.4	4
0	15644	12.4	1
0	15645	12.4	1
0	15696	12.45	1
0	15697	12.45	1
0	15698	12.45	4
0	15699	12.45	1
0	15700	12.45	1
0	15746	12.5	1
0	15747	12.5	1
0	15748	12.5	4
0	15749	12.5	1
0	15750	12.5	1
0	15751	12.5	1
0	15752	12.5	1
0	15753	12.5	4
0	15754	12.5	1
0	15755	12.5	1
0	15806	12.55	1
0	15807	12.55	1
0	15808	12.55	4
0	15809	12.55	1
0	15810	12.55	1
0	15868	12.6	1
0	15869	12.6	1
0	15870	12.6	4
0	15871	12.6	1
0	15872	12.6	1
0	15873	12.6	1
0	15874	12.6	1
0	15875	12.6	4
0	15876	12.6	1
0	15877	12.6	1
0	15928	12.65	1
0	15929	12.65	1
0	15930	12.65	4
0	15931	12.65	1
0	15932	12.65	1
0	15973	12.7	1
0	15974	12.7	1
0	15975	12.7	4
0	15976	12.7	1
0	15977	12.7	1
0	15978	12.7	1
0	15979	12.7	1
0	15980	12.7	4
0	15981	12.7	1
0	15982	12.7	1
0	16038	12.75	1
0	16039	12.75	1
0	16040	12.75	4
0	16041	12.75	1
0	16042	12.75	1
0	16083	12.8	1
0	16084	12.8	1
0	16085	12.8	4
0	16086	12.8	1
0	16087	12.8	1
0	16088	12.8	1
0	16089	12.8	1
0	16090	12.8	4
0	16091	12.8	1
0	16092	12.8	1
0	16143	12.85	1
0	16144	12.85	1
0	16145	12.85	4
0	16146	12.85	1
0	16147	12.85	1
0	16188	12.9	1
0	16189	12.9	1
0	16190	12.9	4
0	16191	12.9	1
0	16192	12.9	1
0	16193	12.9	1
0	16194	12.9	1
0	16195	12.9	4
0	16196	12.9	1
0	16197	12.9	1
0	16253	12.95	1
0	16254	12.95	1
0	16255	12.95	4
0	16256	12.95	1
0	16257	12.95	1
0	16298	13	1
0	16299	13	1
0	16300	13	4
0	16301	13	1
0	16302	13	1
0	16303	13	1
0	16304	13	1
0	16305	13	4
0	16306	13	1
0	16307	13	1
0	16358	13.05	1
0	16359	13.05	1
0	16360	13.05	4
0	16361	13.05	1
0	16362	13.05	1
0	16408	13.1	1
0	16409	13.1	1
0	16410	13.1	4
0	16411	13.1	1
0	16412	13.1	1
0	16413	13.1	1
0	16414	13.1	1
0	16415	13.1	4
0	16416	13.1	1
0	16417	13.1	1
0	16474	13.15	1
0	16475	13.15	1
0	16476	13.15	4
0	16477	13.15	1
0	16478	13.15	1
0	16519	13.2	1
0	16520	13.2	1
0	16521	13.2	4
0	16522	13.2	1
0	16523	13.2	1
0	16524	13.2	1
0	16525	13.2	1
0	16526	13.2	4
0	16527	13.2	1
0	16528	13.2	1
0	16579	13.25	1
0	16580	13.25	1
0	16581	13.25	4
0	16582	13.25	1
0	16583	13.25	1
0	16624	13.3	1
0	16625	13.3	1
0	16626	13.3	4
0	16627	13.3	1
0	16628	13.3	1
0	16629	13.3	1
0	16630	13.3	1
0	16631	13.3	4
0	16632	13.3	1
0	16633	13.3	1
0	16689	13.35	1
0	16690	13.35	1
0	16691	13.35	4
0	16692	13.35	1
0	16693	13.35	1
0	16734	13.4	1
0	16735	13.4	1
0	16736	13.4	4
0	16737	13.4	1
0	16738	13.4	1
0	16739	13.4	1
0	16740	13.4	1
0	16741	13.4	4
0	16742	13.4	1
0	16743	13.4	1
0	16794	13.45	1
0	16795	13.45	1
0	16796	13.45	4
0	16797	13.45	1
0	16798	13.45	1
0	16839	13.5	1
0	16840	13.5	1
0	16841	13.5	4
0	16842	13.5	1
0	16843	13.5	1
0	16844	13.5	1
0	16845	13.5	1
0	16846	13.5	4
0	16847	13.5	1
0	16848	13.5	1
0	16904	13.55	1
0	16905	13.55	1
0	16906	13.55	4
0	16907	13.55	1
0	16908	13.55	1
0	16949	13.6	1
0	16950	13.6	1
0	16951	13.6	4
0	16952	13.6	1
0	16953	13.6	1
0	16954	13.6	1
0	16955	13.6	1
0	16956	13.6	4
0	16957	13.6	1
0	16958	13.6	1
0	17009	13.65	1
0	17010	13.65	1
0	17011	13.65	4
0	17012	13.65	1
0	17013	13.65	1
0	17088	13.7	1
0	17089	13.7	1
0	17090	13.7	4
0	17091	13.7	1
0	17092	13.7	1
0	17093	13.7	1
0	17094	13.7	1
0	17095	13.7	4
0	17096	13.7	1
0	17097	13.7	1
0	17148	13.75	1
0	17149	13.75	1
0	17150	13.75	4
0	17151	13.75	1
0	17152	13.75	1
0	17193	13.8	1
0	17194	13.8	1
0	17195	13.8	4
0	17196	13.8	1
0	17197	13.8	1
0	17198	13.8	1
0	17199	13.8	1
0	17200	13.8	4
0	17201	13.8	1
0	17202	13.8	1
0	17258	13.85	1
0	17259	13.85	1
0	17260	13.85	4
0	17261	13.85	1
0	17262	13.85	1
0	17303	13.9	1
0	17304	13.9	1
0	17305	13.9	4
0	17306	13.9	1
0	17307	13.9	1
0	17308	13.9	1
0	17309	13.9	1
0	17310	13.9	4
0	17311	13.9	1
0	17312	13.9	1
0	17363	13.95	1
0	17364	13.95	1
0	17365	13.95	4
0	17366	13.95	1
0	17367	13.95	1
0	17408	14	1
0	17409	14	1
0	17410	14	4
0	17411	14	1
0	17412	14	1
0	17413	14	1
0	17414	14	1
0	17415	14	4
0	17416	14	1
0	17417	14	1
0	17468	14.05	1
0	17469	14.05	1
0	17470	14.05	4
0	17471	14.05	1
0	17472	14.05	1
0	17523	14.1	1
0	17524	14.1	1
0	17525	14.1	4
0	17526	14.1	1
0	17527	14.1	1
0	17528	14.1	1
0	17529	14.1	1
0	17530	14.1	4
0	17531	14.1	1
0	17532	14.1	1
0	17589	14.15	1
0	17590	14.15	1
0	17591	14.15	4
0	17592	14.15	1
0	17593	14.15	1
0	17651	14.2	1
0	17652	14.2	1
0	17653	14.2	4
0	17654	14.2	1
0	17655	14.2	1
0	17656	14.2	1
0	17657	14.2	1
0	17658	14.2	4
0	17659	14.2	1
0	17660	14.2	1
0	17711	14.25	1
0	17712	14.25	1
0	17713	14.25	4
0	17714	14.25	1
0	17715	14.25	1
0	17756	14.3	1
0	17757	14.3	1
0	17758	14.3	4
0	17759	14.3	1
0	17760	14.3	1
0	17761	14.3	1
0	17762	14.3	1
0	17763	14.3	4
0	17764	14.3	1
0	17765	14.3	1
0	17821	14.35	1
0	17822	14.35	1
0	17823	14.35	4
0	17824	14.35	1
0	17825	14.35	1
0	17866	14.4	1
0	17867	14.4	1
0	17868	14.4	4
0	17869	14.4	1
0	17870	14.4	1
0	17871	14.4	1
0	17872	14.4	1
0	17873	14.4	4
0	17874	14.4	1
0	17875	14.4	1
0	17926	14.45	1
0	17927	14.45	1
0	17928	14.45	4
0	17929	14.45	1
0	17930	14.45	1
0	17971	14.5	1
0	17972	14.5	1
0	17973	14.5	4
0	17974	14.5	1
0	17975	14.5	1
0	17976	14.5	1
0	17977	14.5	1
0	17978	14.5	4
0	17979	14.5	1
0	17980	14.5	1
0	18048	14.55	1
0	18049	14.55	1
0	18050	14.55	4
0	18051	14.55	1
0	18052	14.55	1
0	18093	14.6	1
0	18094	14.6	1
0	18095	14.6	4
0	18096	14.6	1
0	18097	14.6	1
0	18098	14.6	1
0	18099	14.6	1
0	18100	14.6	4
0	18101	14.6	1
0	18102	14.6	1
0	18153	14.65	1
0	18154	14.65	1
0	18155	14.65	4
0	18156	14.65	1
0	18157	14.65	1
0	18203	14.7	1
0	18204	14.7	1
0	18205	14.7	4
0	18206	14.7	1
0	18207	14.7	1
0	18208	14.7	1
0	18209	14.7	1
0	18210	14.7	4
0	18211	14.7	1
0	18212	14.7	1
0	18263	14.75	1
0	18264	14.75	1
0	18265	14.75	4
0	18266	14.75	1
0	18267	14.75	1
0	18308	14.8	1
0	18309	14.8	1
0	18310	14.8	4
0	18311	14.8	1
0	18312	14.8	1
0	18313	14.8	1
0	18314	14.8	1
0	18315	14.8	4
0	18316	14.8	1
0	18317	14.8	1
0	18368	14.85	1
0	18369	14.85	1
0	18370	14.85	4
0	18371	14.85	1
0	18372	14.85	1
0	18413	14.9	1
0	18414	14.9	1
0	18415	14.9	4
0	18416	14.9	1
0	18417	14.9	1
0	18418	14.9	1
0	18419	14.9	1
0	18420	14.9	4
0	18421	14.9	1
0	18422	14.9	1
0	18473	14.95	1
0	18474	14.95	1
0	18475	14.95	4
0	18476	14.95	1
0	18477	14.95	1
0	18518	15	1
0	18519	15	1
0	18520	15	4
0	18521	15	1
0	18522	15	1
0	18523	15	1
0	18524	15	1
0	18525	15	4
0	18526	15	1
0	18527	15	1
0	18578	15.05	1
0	18579	15.05	1
0	18580	15.05	4
0	18581	15.05	1
0	18582	15.05	1
0	18628	15.1	1
0	18629	15.1	1
0	18630	15.1	4
0	18631	15.1	1
0	18632	15.1	1
0	18633	15.1	1
0	18634	15.1	1
0	18635	15.1	4
0	18636	15.1	1
0	18637	15.1	1
0	18694	15.15	1
0	18695	15.15	1
0	18696	15.15	4
0	18697	15.15	1
0	18698	15.15	1
0	18739	15.2	1
0	18740	15.2	1
0	18741	15.2	4
0	18742	15.2	1
0	18743	15.2	1
0	18744	15.2	1
0	18745	15.2	1
0	18746	15.2	4
0	18747	15.2	1
0	18748	15.2	1
0	18799	15.25	1
0	18800	15.25	1
0	18801	15.25	4
0	18802	15.25	1
0	18803	15.25	1
0	18872	15.3	1
0	18873	15.3	1
0	18874	15.3	4
0	18875	15.3	1
0	18876	15.3	1
0	18877	15.3	1
0	18878	15.3	1
0	18879	15.3	4
0	18880	15.3	1
0	18881	15.3	1
0	18932	15.35	1
0	18933	15.35	1
0	18934	15.35	4
0	18935	15.35	1
0	18936	15.35	1
0	18977	15.4	1
0	18978	15.4	1
0	18979	15.4	4
0	18980	15.4	1
0	18981	15.4	1
0	18982	15.4	1
0	18983	15.4	1
0	18984	15.4	4
0	18985	15.4	1
0	18986	15.4	1
0	19101	15.45	1
0	19102	15.45	1
0	19103	15.45	4
0	19104	15.45	1
0	19105	15.45	1
0	19190	15.5	1
0	19191	15.5	1
0	19192	15.5	4
0	19193	15.5	1
0	19194	15.5	1
0	19195	15.5	1
0	19196	15.5	1
0	19197	15.5	4
0	19198	15.5	1
0	19199	15.5	1
0	19302	15.55	1
0	19303	15.55	1
0	19304	15.55	4
0	19305	15.55	1
0	19306	15.55	1
0	19347	15.6	1
0	19348	15.6	1
0	19349	15.6	4
0	19350	15.6	1
0	19351	15.6	1
0	19352	15.6	1
0	19353	15.6	1
0	19354	15.6	4
0	19355	15.6	1
0	19356	15.6	1
0	19407	15.65	1
0	19408	15.65	1
0	19409	15.65	4
0	19410	15.65	1
0	19411	15.65	1
0	19469	15.7	1
0	19470	15.7	1
0	19471	15.7	4
0	19472	15.7	1
0	19473	15.7	1
0	19474	15.7	1
0	19475	15.7	1
0	19476	15.7	4
0	19477	15.7	1
0	19478	15.7	1
0	19529	15.75	1
0	19530	15.75	1
0	19531	15.75	4
0	19532	15.75	1
0	19533	15.75	1
0	19632	15.8	1
0	19633	15.8	1
0	19634	15.8	4
0	19635	15.8	1
0	19636	15.8	1
0	19637	15.8	1
0	19638	15.8	1
0	19639	15.8	4
0	19640	15.8	1
0	19641	15.8	1
0	19782	15.85	1
0	19783	15.85	1
0	19784	15.85	4
0	19785	15.85	1
0	19786	15.85	1
0	19827	15.9	1
0	19828	15.9	1
0	19829	15.9	4
0	19830	15.9	1
0	19831	15.9	1
0	19832	15.9	1
0	19833	15.9	1
0	19834	15.9	4
0	19835	15.9	1
0	19836	15.9	1
0	19910	15.95	1
0	19911	15.95	1
0	19912	15.95	4
0	19913	15.95	1
0	19914	15.95	1
0	19992	16	1
0	19993	16	1
0	19994	16	4
0	19995	16	1
0	19996	16	1
0	19997	16	1
0	19998	16	1
0	19999	16	4
0	20000	16	1
0	20001	16	1
0	20069	16.05	1
0	20070	16.05	1
0	20071	16.05	4
0	20072	16.05	1
0	20073	16.05	1
0	20124	16.1	1
0	20125	16.1	1
0	20126	16.1	4
0	20127	16.1	1
0	20128	16.1	1
0	20129	16.1	1
0	20130	16.1	1
0	20131	16.1	4
0	20132	16.1	1
0	20133	16.1	1
0	20190	16.15	1
0	20191	16.15	1
0	20192	16.15	4
0	20193	16.15	1
0	20194	16.15	1
0	20235	16.2	1
0	20236	16.2	1
0	20237	16.2	4
0	20238	16.2	1
0	20239	16.2	1
0	20240	16.2	1
0	20241	16.2	1
0	20242	16.2	4
0	20243	16.2	1
0	20244	16.2	1
0	20300	16.25	1
0	20301	16.25	1
0	20302	16.25	4
0	20303	16.25	1
0	20304	16.25	1
0	20350	16.3	1
0	20351	16.3	1
0	20352	16.3	4
0	20353	16.3	1
0	20354	16.3	1
0	20355	16.3	1
0	20356	16.3	1
0	20357	16.3	4
0	20358	16.3	1
0	20359	16.3	1
0	20472	16.35	1
0	20473	16.35	1
0	20474	16.35	4
0	20475	16.35	1
0	20476	16.35	1
0	20542	16.4	1
0	20543	16.4	1
0	20544	16.4	4
0	20545	16.4	1
0	20546	16.4	1
0	20547	16.4	1
0	20548	16.4	1
0	20549	16.4	4
0	20550	16.4	1
0	20551	16.4	1
0	20602	16.45	1
0	20603	16.45	1
0	20604	16.45	4
0	20605	16.45	1
0	20606	16.45	1
0	20652	16.5	1
0	20653	16.5	1
0	20654	16.5	4
0	20655	16.5	1
0	20656	16.5	1
0	20657	16.5	1
0	20658	16.5	1
0	20659	16.5	4
0	20660	16.5	1
0	20661	16.5	1
0	20729	16.55	1
0	20730	16.55	1
0	20731	16.55	4
0	20732	16.55	1
0	20733	16.55	1
0	20774	16.6	1
0	20775	16.6	1
0	20776	16.6	4
0	20777	16.6	1
0	20778	16.6	1
0	20779	16.6	1
0	20780	16.6	1
0	20781	16.6	4
0	20782	16.6	1
0	20783	16.6	1
0	20834	16.65	1
0	20835	16.65	1
0	20836	16.65	4
0	20837	16.65	1
0	20838	16.65	1
0	20879	16.7	1
0	20880	16.7	1
0	20881	16.7	4
0	20882	16.7	1
0	20883	16.7	1
0	20884	16.7	1
0	20885	16.7	1
0	20886	16.7	4
0	20887	16.7	1
0	20888	16.7	1
0	20939	16.75	1
0	20940	16.75	1
0	20941	16.75	4
0	20942	16.75	1
0	20943	16.75	1
0	20984	16.8	1
0	20985	16.8	1
0	20986	16.8	4
0	20987	16.8	1
0	20988	16.8	1
0	20989	16.8	1
0	20990	16.8	1
0	20991	16.8	4
0	20992	16.8	1
0	20993	16.8	1
0	21044	16.85	1
0	21045	16.85	1
0	21046	16.85	4
0	21047	16.85	1
0	21048	16.85	1
0	21106	16.9	1
0	21107	16.9	1
0	21108	16.9	4
0	21109	16.9	1
0	21110	16.9	1
0	21111	16.9	1
0	21112	16.9	1
0	21113	16.9	4
0	21114	16.9	1
0	21115	16.9	1
0	21166	16.95	1
0	21167	16.95	1
0	21168	16.95	4
0	21169	16.95	1
0	21170	16.95	1
0	21216	17	1
0	21217	17	1
0	21218	17	4
0	21219	17	1
0	21220	17	1
0	21221	17	1
0	21222	17	1
0	21223	17	4
0	21224	17	1
0	21225	17	1
0	21276	17.05	1
0	21277	17.05	1
0	21278	17.05	4
0	21279	17.05	1
0	21280	17.05	1
0	21381	17.1	1
0	21382	17.1	1
0	21383	17.1	4
0	21384	17.1	1
0	21385	17.1	1
0	21386	17.1	1
0	21387	17.1	1
0	21388	17.1	4
0	21389	17.1	1
0	21390	17.1	1
0	21467	17.15	1
0	21468	17.15	1
0	21469	17.15	4
0	21470	17.15	1
0	21471	17.15	1
0	21512	17.2	1
0	21513	17.2	1
0	21514	17.2	4
0	21515	17.2	1
0	21516	17.2	1
0	21517	17.2	1
0	21518	17.2	1
0	21519	17.2	4
0	21520	17.2	1
0	21521	17.2	1
0	21572	17.25	1
0	21573	17.25	1
0	21574	17.25	4
0	21575	17.25	1
0	21576	17.25	1
0	21617	17.3	1
0	21618	17.3	1
0	21619	17.3	4
0	21620	17.3	1
0	21621	17.3	1
0	21622	17.3	1
0	21623	17.3	1
0	21624	17.3	4
0	21625	17.3	1
0	21626	17.3	1
0	21677	17.35	1
0	21678	17.35	1
0	21679	17.35	4
0	21680	17.35	1
0	21681	17.35	1
0	21727	17.4	1
0	21728	17.4	1
0	21729	17.4	4
0	21730	17.4	1
0	21731	17.4	1
0	21732	17.4	1
0	21733	17.4	1
0	21734	17.4	4
0	21735	17.4	1
0	21736	17.4	1
0	21810	17.45	1
0	21811	17.45	1
0	21812	17.45	4
0	21813	17.45	1
0	21814	17.45	1
0	21855	17.5	1
0	21856	17.5	1
0	21857	17.5	4
0	21858	17.5	1
0	21859	17.5	1
0	21860	17.5	1
0	21861	17.5	1
0	21862	17.5	4
0	21863	17.5	1
0	21864	17.5	1
0	21915	17.55	1
0	21916	17.55	1
0	21917	17.55	4
0	21918	17.55	1
0	21919	17.55	1
0	21960	17.6	1
0	21961	17.6	1
0	21962	17.6	4
0	21963	17.6	1
0	21964	17.6	1
0	21965	17.6	1
0	21966	17.6	1
0	21967	17.6	4
0	21968	17.6	1
0	21969	17.6	1
0	22059	17.65	1
0	22060	17.65	1
0	22061	17.65	4
0	22062	17.65	1
0	22063	17.65	1
0	22196	17.7	1
0	22197	17.7	1
0	22198	17.7	4
0	22199	17.7	1
0	22200	17.7	1
0	22201	17.7	1
0	22202	17.7	1
0	22203	17.7	4
0	22204	17.7	1
0	22205	17.7	1
0	22305	17.75	1
0	22306	17.75	1
0	22307	17.75	4
0	22308	17.75	1
0	22309	17.75	1
0	22372	17.8	1
0	22373	17.8	1
0	22374	17.8	4
0	22375	17.8	1
0	22376	17.8	1
0	22377	17.8	1
0	22378	17.8	1
0	22379	17.8	4
0	22380	17.8	1
0	22381	17.8	1
0	22454	17.85	1
0	22455	17.85	1
0	22456	17.85	4
0	22457	17.85	1
0	22458	17.85	1
0	22499	17.9	1
0	22500	17.9	1
0	22501	17.9	4
0	22502	17.9	1
0	22503	17.9	1
0	22504	17.9	1
0	22505	17.9	1
0	22506	17.9	4
0	22507	17.9	1
0	22508	17.9	1
0	22604	17.95	1
0	22605	17.95	1
0	22606	17.95	4
0	22607	17.95	1
0	22608	17.95	1
0	22735	18	1
0	22736	18	1
0	22737	18	4
0	22738	18	1
0	22739	18	1
0	22740	18	1
0	22741	18	1
0	22742	18	4
0	22743	18	1
0	22744	18	1
0	22795	18.05	1
0	22796	18.05	1
0	22797	18.05	4
0	22798	18.05	1
0	22799	18.05	1
0	22850	18.1	1
0	22851	18.1	1
0	22852	18.1	4
0	22853	18.1	1
0	22854	18.1	1
0	22855	18.1	1
0	22856	18.1	1
0	22857	18.1	4
0	22858	18.1	1
0	22859	18.1	1
0	22916	18.15	1
0	22917	18.15	1
0	22918	18.15	4
0	22919	18.15	1
0	22920	18.15	1
0	22978	18.2	1
0	22979	18.2	1
0	22980	18.2	4
0	22981	18.2	1
0	22982	18.2	1
0	22983	18.2	1
0	22984	18.2	1
0	22985	18.2	4
0	22986	18.2	1
0	22987	18.2	1
0	23038	18.25	1
0	23039	18.25	1
0	23040	18.25	4
0	23041	18.25	1
0	23042	18.25	1
0	23083	18.3	1
0	23084	18.3	1
0	23085	18.3	4
0	23086	18.3	1
0	23087	18.3	1
0	23088	18.3	1
0	23089	18.3	1
0	23090	18.3	4
0	23091	18.3	1
0	23092	18.3	1
0	23143	18.35	1
0	23144	18.35	1
0	23145	18.35	4
0	23146	18.35	1
0	23147	18.35	1
0	23260	18.4	1
0	23261	18.4	1
0	23262	18.4	4
0	23263	18.4	1
0	23264	18.4	1
0	23265	18.4	1
0	23266	18.4	1
0	23267	18.4	4
0	23268	18.4	1
0	23269	18.4	1
0	23356	18.45	1
0	23357	18.45	1
0	23358	18.45	4
0	23359	18.45	1
0	23360	18.45	1
0	23440	18.5	1
0	23441	18.5	1
0	23442	18.5	4
0	23443	18.5	1
0	23444	18.5	1
0	23445	18.5	1
0	23446	18.5	1
0	23447	18.5	4
0	23448	18.5	1
0	23449	18.5	1
0	23556	18.55	1
0	23557	18.55	1
0	23558	18.55	4
0	23559	18.55	1
0	23560	18.55	1
0	23674	18.6	1
0	23675	18.6	1
0	23676	18.6	4
0	23677	18.6	1
0	23678	18.6	1
0	23679	18.6	1
0	23680	18.6	1
0	23681	18.6	4
0	23682	18.6	1
0	23683	18.6	1
0	23734	18.65	1
0	23735	18.65	1
0	23736	18.65	4
0	23737	18.65	1
0	23738	18.65	1
0	23779	18.7	1
0	23780	18.7	1
0	23781	18.7	4
0	23782	18.7	1
0	23783	18.7	1
0	23784	18.7	1
0	23785	18.7	1
0	23786	18.7	4
0	23787	18.7	1
0	23788	18.7	1
0	23878	18.75	1
0	23879	18.75	1
0	23880	18.75	4
0	23881	18.75	1
0	23882	18.75	1
0	23964	18.8	1
0	23965	18.8	1
0	23966	18.8	4
0	23967	18.8	1
0	23968	18.8	1
0	23969	18.8	1
0	23970	18.8	1
0	23971	18.8	4
0	23972	18.8	1
0	23973	18.8	1
0	24024	18.85	1
0	24025	18.85	1
0	24026	18.85	4
0	24027	18.85	1
0	24028	18.85	1
0	24069	18.9	1
0	24070	18.9	1
0	24071	18.9	4
0	24072	18.9	1
0	24073	18.9	1
0	24074	18.9	1
0	24075	18.9	1
0	24076	18.9	4
0	24077	18.9	1
0	24078	18.9	1
0	24129	18.95	1
0	24130	18.95	1
0	24131	18.95	4
0	24132	18.95	1
0	24133	18.95	1
0	24174	19	1
0	24175	19	1
0	24176	19	4
0	24177	19	1
0	24178	19	1
0	24179	19	1
0	24180	19	1
0	24181	19	4
0	24182	19	1
0	24183	19	1
0	24234	19.05	1
0	24235	19.05	1
0	24236	19.05	4
0	24237	19.05	1
0	24238	19.05	1
0	24307	19.1	1
0	24308	19.1	1
0	24309	19.1	4
0	24310	19.1	1
0	24311	19.1	1
0	24312	19.1	1
0	24313	19.1	1
0	24314	19.1	4
0	24315	19.1	1
0	24316	19.1	1
0	24373	19.15	1
0	24374	19.15	1
0	24375	19.15	4
0	24376	19.15	1
0	24377	19.15	1
0	24418	19.2	1
0	24419	19.2	1
0	24420	19.2	4
0	24421	19.2	1
0	24422	19.2	1
0	24423	19.2	1
0	24424	19.2	1
0	24425	19.2	4
0	24426	19.2	1
0	24427	19.2	1
0	24478	19.25	1
0	24479	19.25	1
0	24480	19.25	4
0	24481	19.25	1
0	24482	19.25	1
0	24589	19.3	1
0	24590	19.3	1
0	24591	19.3	4
0	24592	19.3	1
0	24593	19.3	1
0	24594	19.3	1
0	24595	19.3	1
0	24596	19.3	4
0	24597	19.3	1
0	24598	19.3	1
0	24690	19.35	1
0	24691	19.35	1
0	24692	19.35	4
0	24693	19.35	1
0	24694	19.35	1
0	24735	19.4	1
0	24736	19.4	1
0	24737	19.4	4
0	24738	19.4	1
0	24739	19.4	1
0	24740	19.4	1
0	24741	19.4	1
0	24742	19.4	4
0	24743	19.4	1
0	24744	19.4	1
0	24818	19.45	1
0	24819	19.45	1
0	24820	19.45	4
0	24821	19.45	1
0	24822	19.45	1
0	24863	19.5	1
0	24864	19.5	1
0	24865	19.5	4
0	24866	19.5	1
0	24867	19.5	1
0	24868	19.5	1
0	24869	19.5	1
0	24870	19.5	4
0	24871	19.5	1
0	24872	19.5	1
0	24940	19.55	1
0	24941	19.55	1
0	24942	19.55	4
0	24943	19.55	1
0	24944	19.55	1
0	24985	19.6	1
0	24986	19.6	1
0	24987	19.6	4
0	24988	19.6	1
0	24989	19.6	1
0	24990	19.6	1
0	24991	19.6	1
0	24992	19.6	4
0	24993	19.6	1
0	24994	19.6	1
0	25045	19.65	1
0	25046	19.65	1
0	25047	19.65	4
0	25048	19.65	1
0	25049	19.65	1
0	25095	19.7	1
0	25096	19.7	1
0	25097	19.7	4
0	25098	19.7	1
0	25099	19.7	1
0	25100	19.7	1
0	25101	19.7	1
0	25102	19.7	4
0	25103	19.7	1
0	25104	19.7	1
0	25155	19.75	1
0	25156	19.75	1
0	25157	19.75	4
0	25158	19.75	1
0	25159	19.75	1
0	25200	19.8	1
0	25201	19.8	1
0	25202	19.8	4
0	25203	19.8	1
0	25204	19.8	1
0	25205	19.8	1
0	25206	19.8	1
0	25207	19.8	4
0	25208	19.8	1
0	25209	19.8	1
0	25299	19.85	1
0	25300	19.85	1
0	25301	19.85	4
0	25302	19.85	1
0	25303	19.85	1
0	25344	19.9	1
0	25345	19.9	1
0	25346	19.9	4
0	25347	19.9	1
0	25348	19.9	1
0	25349	19.9	1
0	25350	19.9	1
0	25351	19.9	4
0	25352	19.9	1
0	25353	19.9	1
0	25404	19.95	1
0	25405	19.95	1
0	25406	19.95	4
0	25407	19.95	1
0	25408	19.95	1
0	25489	20	1
0	25490	20	1
0	25491	20	4
0	25492	20	1
0	25493	20	1
0	25494	20	1
0	25495	20	1
0	25496	20	4
0	25497	20	1
0	25498	20	1
0	25549	20.05	1
0	25550	20.05	1
0	25551	20.05	4
0	25552	20.05	1
0	25553	20.05	1
0	25599	20.1	1
0	25600	20.1	1
0	25601	20.1	4
0	25602	20.1	1
0	25603	20.1	1
0	25604	20.1	1
0	25605	20.1	1
0	25606	20.1	4
0	25607	20.1	1
0	25608	20.1	1
0	25670	20.15	1
0	25671	20.15	1
0	25672	20.15	4
0	25673	20.15	1
0	25674	20.15	1
0	25715	20.2	1
0	25716	20.2	1
0	25717	20.2	4
0	25718	20.2	1
0	25719	20.2	1
0	25720	20.2	1
0	25721	20.2	1
0	25722	20.2	4
0	25723	20.2	1
0	25724	20.2	1
0	25775	20.25	1
0	25776	20.25	1
0	25777	20.25	4
0	25778	20.25	1
0	25779	20.25	1
0	25820	20.3	1
0	25821	20.3	1
0	25822	20.3	4
0	25823	20.3	1
0	25824	20.3	1
0	25825	20.3	1
0	25826	20.3	1
0	25827	20.3	4
0	25828	20.3	1
0	25829	20.3	1
0	25880	20.35	1
0	25881	20.35	1
0	25882	20.35	4
0	25883	20.35	1
0	25884	20.35	1
0	25930	20.4	1
0	25931	20.4	1
0	25932	20.4	4
0	25933	20.4	1
0	25934	20.4	1
0	25935	20.4	1
0	25936	20.4	1
0	25937	20.4	4
0	25938	20.4	1
0	25939	20.4	1
0	25990	20.45	1
0	25991	20.45	1
0	25992	20.45	4
0	25993	20.45	1
0	25994	20.45	1
0	26035	20.5	1
0	26036	20.5	1
0	26037	20.5	4
0	26038	20.5	1
0	26039	20.5	1
0	26040	20.5	1
0	26041	20.5	1
0	26042	20.5	4
0	26043	20.5	1
0	26044	20.5	1
0	26095	20.55	1
0	26096	20.55	1
0	26097	20.55	4
0	26098	20.55	1
0	26099	20.55	1
0	26140	20.6	1
0	26141	20.6	1
0	26142	20.6	4
0	26143	20.6	1
0	26144	20.6	1
0	26145	20.6	1
0	26146	20.6	1
0	26147	20.6	4
0	26148	20.6	1
0	26149	20.6	1
0	26200	20.65	1
0	26201	20.65	1
0	26202	20.65	4
0	26203	20.65	1
0	26204	20.65	1
0	26250	20.7	1
0	26251	20.7	1
0	26252	20.7	4
0	26253	20.7	1
0	26254	20.7	1
0	26255	20.7	1
0	26256	20.7	1
0	26257	20.7	4
0	26258	20.7	1
0	26259	20.7	1
0	26310	20.75	1
0	26311	20.75	1
0	26312	20.75	4
0	26313	20.75	1
0	26314	20.75	1
0	26355	20.8	1
0	26356	20.8	1
0	26357	20.8	4
0	26358	20.8	1
0	26359	20.8	1
0	26360	20.8	1
0	26361	20.8	1
0	26362	20.8	4
0	26363	20.8	1
0	26364	20.8	1
0	26415	20.85	1
0	26416	20.85	1
0	26417	20.85	4
0	26418	20.85	1
0	26419	20.85	1
0	26465	20.9	1
0	26466	20.9	1
0	26467	20.9	4
0	26468	20.9	1
0	26469	20.9	1
0	26470	20.9	1
0	26471	20.9	1
0	26472	20.9	4
0	26473	20.9	1
0	26474	20.9	1
0	26525	20.95	1
0	26526	20.95	1
0	26527	20.95	4
0	26528	20.95	1
0	26529	20.95	1
0	26570	21	1
0	26571	21	1
0	26572	21	4
0	26573	21	1
0	26574	21	1
0	26575	21	1
0	26576	21	1
0	26577	21	4
0	26578	21	1
0	26579	21	1
0	26630	21.05	1
0	26631	21.05	1
0	26632	21.05	4
0	26633	21.05	1
0	26634	21.05	1
0	26680	21.1	1
0	26681	21.1	1
0	26682	21.1	4
0	26683	21.1	1
0	26684	21.1	1
0	26685	21.1	1
0	26686	21.1	1
0	26687	21.1	4
0	26688	21.1	1
0	26689	21.1	1
0	26751	21.15	1
0	26752	21.15	1
0	26753	21.15	4
0	26754	21.15	1
0	26755	21.15	1
0	26796	21.2	1
0	26797	21.2	1
0	26798	21.2	4
0	26799	21.2	1
0	26800	21.2	1
0	26801	21.2	1
0	26802	21.2	1
0	26803	21.2	4
0	26804	21.2	1
0	26805	21.2	1
0	26856	21.25	1
0	26857	21.25	1
0	26858	21.25	4
0	26859	21.25	1
0	26860	21.25	1
0	26924	21.3	1
0	26925	21.3	1
0	26926	21.3	4
0	26927	21.3	1
0	26928	21.3	1
0	26929	21.3	1
0	26930	21.3	1
0	26931	21.3	4
0	26932	21.3	1
0	26933	21.3	1
0	26984	21.35	1
0	26985	21.35	1
0	26986	21.35	4
0	26987	21.35	1
0	26988	21.35	1
0	27029	21.4	1
0	27030	21.4	1
0	27031	21.4	4
0	27032	21.4	1
0	27033	21.4	1
0	27034	21.4	1
0	27035	21.4	1
0	27036	21.4	4
0	27037	21.4	1
0	27038	21.4	1
0	27089	21.45	1
0	27090	21.45	1
0	27091	21.45	4
0	27092	21.45	1
0	27093	21.45	1
0	27134	21.5	1
0	27135	21.5	1
0	27136	21.5	4
0	27137	21.5	1
0	27138	21.5	1
0	27139	21.5	1
0	27140	21.5	1
0	27141	21.5	4
0	27142	21.5	1
0	27143	21.5	1
0	27194	21.55	1
0	27195	21.55	1
0	27196	21.55	4
0	27197	21.55	1
0	27198	21.55	1
0	27261	21.6	1
0	27262	21.6	1
0	27263	21.6	4
0	27264	21.6	1
0	27265	21.6	1
0	27266	21.6	1
0	27267	21.6	1
0	27268	21.6	4
0	27269	21.6	1
0	27270	21.6	1
0	27321	21.65	1
0	27322	21.65	1
0	27323	21.65	4
0	27324	21.65	1
0	27325	21.65	1
0	27413	21.7	1
0	27414	21.7	1
0	27415	21.7	4
0	27416	21.7	1
0	27417	21.7	1
0	27418	21.7	1
0	27419	21.7	1
0	27420	21.7	4
0	27421	21.7	1
0	27422	21.7	1
0	27545	21.75	1
0	27546	21.75	1
0	27547	21.75	4
0	27548	21.75	1
0	27549	21.75	1
0	27590	21.8	1
0	27591	21.8	1
0	27592	21.8	4
0	27593	21.8	1
0	27594	21.8	1
0	27595	21.8	1
0	27596	21.8	1
0	27597	21.8	4
0	27598	21.8	1
0	27599	21.8	1
0	27667	21.85	1
0	27668	21.85	1
0	27669	21.85	4
0	27670	21.85	1
0	27671	21.85	1
0	27712	21.9	1
0	27713	21.9	1
0	27714	21.9	4
0	27715	21.9	1
0	27716	21.9	1
0	27717	21.9	1
0	27718	21.9	1
0	27719	21.9	4
0	27720	21.9	1
0	27721	21.9	1
0	27772	21.95	1
0	27773	21.95	1
0	27774	21.95	4
0	27775	21.95	1
0	27776	21.95	1
0	27839	22	1
0	27840	22	1
0	27841	22	4
0	27842	22	1
0	27843	22	1
0	27844	22	1
0	27845	22	1
0	27846	22	4
0	27847	22	1
0	27848	22	1
0	27899	22.05	1
0	27900	22.05	1
0	27901	22.05	4
0	27902	22.05	1
0	27903	22.05	1
0	27949	22.1	1
0	27950	22.1	1
0	27951	22.1	4
0	27952	22.1	1
0	27953	22.1	1
0	27954	22.1	1
0	27955	22.1	1
0	27956	22.1	4
0	27957	22.1	1
0	27958	22.1	1
0	28025	22.15	1
0	28026	22.15	1
0	28027	22.15	4
0	28028	22.15	1
0	28029	22.15	1
0	28070	22.2	1
0	28071	22.2	1
0	28072	22.2	4
0	28073	22.2	1
0	28074	22.2	1
0	28075	22.2	1
0	28076	22.2	1
0	28077	22.2	4
0	28078	22.2	1
0	28079	22.2	1
0	28147	22.25	1
0	28148	22.25	1
0	28149	22.25	4
0	28150	22.25	1
0	28151	22.25	1
0	28215	22.3	1
0	28216	22.3	1
0	28217	22.3	4
0	28218	22.3	1
0	28219	22.3	1
0	28220	22.3	1
0	28221	22.3	1
0	28222	22.3	4
0	28223	22.3	1
0	28224	22.3	1
0	28275	22.35	1
0	28276	22.35	1
0	28277	22.35	4
0	28278	22.35	1
0	28279	22.35	1
0	28343	22.4	1
0	28344	22.4	1
0	28345	22.4	4
0	28346	22.4	1
0	28347	22.4	1
0	28348	22.4	1
0	28349	22.4	1
0	28350	22.4	4
0	28351	22.4	1
0	28352	22.4	1
0	28408	22.45	1
0	28409	22.45	1
0	28410	22.45	4
0	28411	22.45	1
0	28412	22.45	1
0	28453	22.5	1
0	28454	22.5	1
0	28455	22.5	4
0	28456	22.5	1
0	28457	22.5	1
0	28458	22.5	1
0	28459	22.5	1
0	28460	22.5	4
0	28461	22.5	1
0	28462	22.5	1
0	28513	22.55	1
0	28514	22.55	1
0	28515	22.55	4
0	28516	22.55	1
0	28517	22.55	1
0	28558	22.6	1
0	28559	22.6	1
0	28560	22.6	4
0	28561	22.6	1
0	28562	22.6	1
0	28563	22.6	1
0	28564	22.6	1
0	28565	22.6	4
0	28566	22.6	1
0	28567	22.6	1
0	28618	22.65	1
0	28619	22.65	1
0	28620	22.65	4
0	28621	22.65	1
0	28622	22.65	1
0	28663	22.7	1
0	28664	22.7	1
0	28665	22.7	4
0	28666	22.7	1
0	28667	22.7	1
0	28668	22.7	1
0	28669	22.7	1
0	28670	22.7	4
0	28671	22.7	1
0	28672	22.7	1
0	28723	22.75	1
0	28724	22.75	1
0	28725	22.75	4
0	28726	22.75	1
0	28727	22.75	1
0	28822	22.8	1
0	28823	22.8	1
0	28824	22.8	4
0	28825	22.8	1
0	28826	22.8	1
0	28827	22.8	1
0	28828	22.8	1
0	28829	22.8	4
0	28830	22.8	1
0	28831	22.8	1
0	28904	22.85	1
0	28905	22.85	1
0	28906	22.85	4
0	28907	22.85	1
0	28908	22.85	1
0	28949	22.9	1
0	28950	22.9	1
0	28951	22.9	4
0	28952	22.9	1
0	28953	22.9	1
0	28954	22.9	1
0	28955	22.9	1
0	28956	22.9	4
0	28957	22.9	1
0	28958	22.9	1
0	29032	22.95	1
0	29033	22.95	1
0	29034	22.95	4
0	29035	22.95	1
0	29036	22.95	1
0	29077	23	1
0	29078	23	1
0	29079	23	4
0	29080	23	1
0	29081	23	1
0	29082	23	1
0	29083	23	1
0	29084	23	4
0	29085	23	1
0	29086	23	1
0	29137	23.05	1
0	29138	23.05	1
0	29139	23.05	4
0	29140	23.05	1
0	29141	23.05	1
0	29187	23.1	1
0	29188	23.1	1
0	29189	23.1	4
0	29190	23.1	1
0	29191	23.1	1
0	29192	23.1	1
0	29193	23.1	1
0	29194	23.1	4
0	29195	23.1	1
0	29196	23.1	1
0	29253	23.15	1
0	29254	23.15	1
0	29255	23.15	4
0	29256	23.15	1
0	29257	23.15	1
0	29298	23.2	1
0	29299	23.2	1
0	29300	23.2	4
0	29301	23.2	1
0	29302	23.2	1
0	29303	23.2	1
0	29304	23.2	1
0	29305	23.2	4
0	29306	23.2	1
0	29307	23.2	1
0	29358	23.25	1
0	29359	23.25	1
0	29360	23.25	4
0	29361	23.25	1
0	29362	23.25	1
0	29403	23.3	1
0	29404	23.3	1
0	29405	23.3	4
0	29406	23.3	1
0	29407	23.3	1
0	29408	23.3	1
0	29409	23.3	1
0	29410	23.3	4
0	29411	23.3	1
0	29412	23.3	1
0	29511	23.35	1
0	29512	23.35	1
0	29513	23.35	4
0	29514	23.35	1
0	29515	23.35	1
0	29573	23.4	1
0	29574	23.4	1
0	29575	23.4	4
0	29576	23.4	1
0	29577	23.4	1
0	29578	23.4	1
0	29579	23.4	1
0	29580	23.4	4
0	29581	23.4	1
0	29582	23.4	1
0	29633	23.45	1
0	29634	23.45	1
0	29635	23.45	4
0	29636	23.45	1
0	29637	23.45	1
0	29695	23.5	1
0	29696	23.5	1
0	29697	23.5	4
0	29698	23.5	1
0	29699	23.5	1
0	29700	23.5	1
0	29701	23.5	1
0	29702	23.5	4
0	29703	23.5	1
0	29704	23.5	1
0	29755	23.55	1
0	29756	23.55	1
0	29757	23.55	4
0	29758	23.55	1
0	29759	23.55	1
0	29858	23.6	1
0	29859	23.6	1
0	29860	23.6	4
0	29861	23.6	1
0	29862	23.6	1
0	29863	23.6	1
0	29864	23.6	1
0	29865	23.6	4
0	29866	23.6	1
0	29867	23.6	1
0	29968	23.65	1
0	29969	23.65	1
0	29970	23.65	4
0	29971	23.65	1
0	29972	23.65	1
0	30013	23.7	1
0	30014	23.7	1
0	30015	23.7	4
0	30016	23.7	1
0	30017	23.7	1
0	30018	23.7	1
0	30019	23.7	1
0	30020	23.7	4
0	30021	23.7	1
0	30022	23.7	1
0	30083	23.75	1
0	30084	23.75	1
0	30085	23.75	4
0	30086	23.75	1
0	30087	23.75	1
0	30128	23.8	1
0	30129	23.8	1
0	30130	23.8	4
0	30131	23.8	1
0	30132	23.8	1
0	30133	23.8	1
0	30134	23.8	1
0	30135	23.8	4
0	30136	23.8	1
0	30137	23.8	1
0	30188	23.85	1
0	30189	23.85	1
0	30190	23.85	4
0	30191	23.85	1
0	30192	23.85	1
0	30291	23.9	1
0	30292	23.9	1
0	30293	23.9	4
0	30294	23.9	1
0	30295	23.9	1
0	30296	23.9	1
0	30297	23.9	1
0	30298	23.9	4
0	30299	23.9	1
0	30300	23.9	1
0	30365	23.95	1
0	30366	23.95	1
0	30367	23.95	4
0	30368	23.95	1
0	30369	23.95	1
0	30410	24	1
0	30411	24	1
0	30412	24	4
0	30413	24	1
0	30414	24	1
0	30415	24	1
0	30416	24	1
0	30417	24	4
0	30418	24	1
0	30419	24	1
0	30480	24.05	1
0	30481	24.05	1
0	30482	24.05	4
0	30483	24.05	1
0	30484	24.05	1
0	30530	24.1	1
0	30531	24.1	1
0	30532	24.1	4
0	30533	24.1	1
0	30534	24.1	1
0	30535	24.1	1
0	30536	24.1	1
0	30537	24.1	4
0	30538	24.1	1
0	30539	24.1	1
0	30596	24.15	1
0	30597	24.15	1
0	30598	24.15	4
0	30599	24.15	1
0	30600	24.15	1
0	30641	24.2	1
0	30642	24.2	1
0	30643	24.2	4
0	30644	24.2	1
0	30645	24.2	1
0	30646	24.2	1
0	30647	24.2	1
0	30648	24.2	4
0	30649	24.2	1
0	30650	24.2	1
0	30701	24.25	1
0	30702	24.25	1
0	30703	24.25	4
0	30704	24.25	1
0	30705	24.25	1
0	30746	24.3	1
0	30747	24.3	1
0	30748	24.3	4
0	30749	24.3	1
0	30750	24.3	1
0	30751	24.3	1
0	30752	24.3	1
0	30753	24.3	4
0	30754	24.3	1
0	30755	24.3	1
0	30806	24.35	1
0	30807	24.35	1
0	30808	24.35	4
0	30809	24.35	1
0	30810	24.35	1
0	30851	24.4	1
0	30852	24.4	1
0	30853	24.4	4
0	30854	24.4	1
0	30855	24.4	1
0	30856	24.4	1
0	30857	24.4	1
0	30858	24.4	4
0	30859	24.4	1
0	30860	24.4	1
0	30911	24.45	1
0	30912	24.45	1
0	30913	24.45	4
0	30914	24.45	1
0	30915	24.45	1
0	30956	24.5	1
0	30957	24.5	1
0	30958	24.5	4
0	30959	24.5	1
0	30960	24.5	1
0	30961	24.5	1
0	30962	24.5	1
0	30963	24.5	4
0	30964	24.5	1
0	30965	24.5	1
0	31016	24.55	1
0	31017	24.55	1
0	31018	24.55	4
0	31019	24.55	1
0	31020	24.55	1
0	31061	24.6	1
0	31062	24.6	1
0	31063	24.6	4
0	31064	24.6	1
0	31065	24.6	1
0	31066	24.6	1
0	31067	24.6	1
0	31068	24.6	4
0	31069	24.6	1
0	31070	24.6	1
0	31121	24.65	1
0	31122	24.65	1
0	31123	24.65	4
0	31124	24.65	1
0	31125	24.65	1
0	31166	24.7	1
0	31167	24.7	1
0	31168	24.7	4
0	31169	24.7	1
0	31170	24.7	1
0	31171	24.7	1
0	31172	24.7	1
0	31173	24.7	4
0	31174	24.7	1
0	31175	24.7	1
0	31226	24.75	1
0	31227	24.75	1
0	31228	24.75	4
0	31229	24.75	1
0	31230	24.75	1
0	31271	24.8	1
0	31272	24.8	1
0	31273	24.8	4
0	31274	24.8	1
0	31275	24.8	1
0	31276	24.8	1
0	31277	24.8	1
0	31278	24.8	4
0	31279	24.8	1
0	31280	24.8	1
0	31331	24.85	1
0	31332	24.85	1
0	31333	24.85	4
0	31334	24.85	1
0	31335	24.85	1
0	31376	24.9	1
0	31377	24.9	1
0	31378	24.9	4
0	31379	24.9	1
0	31380	24.9	1
0	31381	24.9	1
0	31382	24.9	1
0	31383	24.9	4
0	31384	24.9	1
0	31385	24.9	1
0	31459	24.95	1
0	31460	24.95	1
0	31461	24.95	4
0	31462	24.95	1
0	31463	24.95	1
0	31504	25	1
0	31505	25	1
0	31506	25	4
0	31507	25	1
0	31508	25	1
0	31509	25	1
0	31510	25	1
0	31511	25	4
0	31512	25	1
0	31513	25	1
0	31564	25.05	1
0	31565	25.05	1
0	31566	25.05	4
0	31567	25.05	1
0	31568	25.05	1
0	31697	25.1	1
0	31698	25.1	1
0	31699	25.1	4
0	31700	25.1	1
0	31701	25.1	1
0	31702	25.1	1
0	31703	25.1	1
0	31704	25.1	4
0	31705	25.1	1
0	31706	25.1	1
0	31807	25.15	1
0	31808	25.15	1
0	31809	25.15	4
0	31810	25.15	1
0	31811	25.15	1
0	31919	25.2	1
0	31920	25.2	1
0	31921	25.2	4
0	31922	25.2	1
0	31923	25.2	1
0	31924	25.2	1
0	31925	25.2	1
0	31926	25.2	4
0	31927	25.2	1
0	31928	25.2	1
0	32023	25.25	1
0	32024	25.25	1
0	32025	25.25	4
0	32026	25.25	1
0	32027	25.25	1
0	32090	25.3	1
0	32091	25.3	1
0	32092	25.3	4
0	32093	25.3	1
0	32094	25.3	1
0	32095	25.3	1
0	32096	25.3	1
0	32097	25.3	4
0	32098	25.3	1
0	32099	25.3	1
0	32173	25.35	1
0	32174	25.35	1
0	32175	25.35	4
0	32176	25.35	1
0	32177	25.35	1
0	32218	25.4	1
0	32219	25.4	1
0	32220	25.4	4
0	32221	25.4	1
0	32222	25.4	1
0	32223	25.4	1
0	32224	25.4	1
0	32225	25.4	4
0	32226	25.4	1
0	32227	25.4	1
0	32278	25.45	1
0	32279	25.45	1
0	32280	25.45	4
0	32281	25.45	1
0	32282	25.45	1
0	32350	25.5	1
0	32351	25.5	1
0	32352	25.5	4
0	32353	25.5	1
0	32354	25.5	1
0	32355	25.5	1
0	32356	25.5	1
0	32357	25.5	4
0	32358	25.5	1
0	32359	25.5	1
0	32410	25.55	1
0	32411	25.55	1
0	32412	25.55	4
0	32413	25.55	1
0	32414	25.55	1
0	32455	25.6	1
0	32456	25.6	1
0	32457	25.6	4
0	32458	25.6	1
0	32459	25.6	1
0	32460	25.6	1
0	32461	25.6	1
0	32462	25.6	4
0	32463	25.6	1
0	32464	25.6	1
0	32543	25.65	1
0	32544	25.65	1
0	32545	25.65	4
0	32546	25.65	1
0	32547	25.65	1
0	32588	25.7	1
0	32589	25.7	1
0	32590	25.7	4
0	32591	25.7	1
0	32592	25.7	1
0	32593	25.7	1
0	32594	25.7	1
0	32595	25.7	4
0	32596	25.7	1
0	32597	25.7	1
0	32653	25.75	1
0	32654	25.75	1
0	32655	25.75	4
0	32656	25.75	1
0	32657	25.75	1
0	32698	25.8	1
0	32699	25.8	1
0	32700	25.8	4
0	32701	25.8	1
0	32702	25.8	1
0	32703	25.8	1
0	32704	25.8	1
0	32705	25.8	4
0	32706	25.8	1
0	32707	25.8	1
0	32758	25.85	1
0	32759	25.85	1
0	32760	25.85	4
0	32761	25.85	1
0	32762	25.85	1
0	32803	25.9	1
0	32804	25.9	1
0	32805	25.9	4
0	32806	25.9	1
0	32807	25.9	1
0	32808	25.9	1
0	32809	25.9	1
0	32810	25.9	4
0	32811	25.9	1
0	32812	25.9	1
0	32863	25.95	1
0	32864	25.95	1
0	32865	25.95	4
0	32866	25.95	1
0	32867	25.95	1
0	32908	26	1
0	32909	26	1
0	32910	26	4
0	32911	26	1
0	32912	26	1
0	32913	26	1
0	32914	26	1
0	32915	26	4
0	32916	26	1
0	32917	26	1
0	32973	26.05	1
0	32974	26.05	1
0	32975	26.05	4
0	32976	26.05	1
0	32977	26.05	1
0	33023	26.1	1
0	33024	26.1	1
0	33025	26.1	4
0	33026	26.1	1
0	33027	26.1	1
0	33028	26.1	1
0	33029	26.1	1
0	33030	26.1	4
0	33031	26.1	1
0	33032	26.1	1
0	33089	26.15	1
0	33090	26.15	1
0	33091	26.15	4
0	33092	26.15	1
0	33093	26.15	1
0	33134	26.2	1
0	33135	26.2	1
0	33136	26.2	4
0	33137	26.2	1
0	33138	26.2	1
0	33139	26.2	1
0	33140	26.2	1
0	33141	26.2	4
0	33142	26.2	1
0	33143	26.2	1
0	33194	26.25	1
0	33195	26.25	1
0	33196	26.25	4
0	33197	26.25	1
0	33198	26.25	1
0	33239	26.3	1
0	33240	26.3	1
0	33241	26.3	4
0	33242	26.3	1
0	33243	26.3	1
0	33244	26.3	1
0	33245	26.3	1
0	33246	26.3	4
0	33247	26.3	1
0	33248	26.3	1
0	33299	26.35	1
0	33300	26.35	1
0	33301	26.35	4
0	33302	26.35	1
0	33303	26.35	1
0	33344	26.4	1
0	33345	26.4	1
0	33346	26.4	4
0	33347	26.4	1
0	33348	26.4	1
0	33349	26.4	1
0	33350	26.4	1
0	33351	26.4	4
0	33352	26.4	1
0	33353	26.4	1
0	33404	26.45	1
0	33405	26.45	1
0	33406	26.45	4
0	33407	26.45	1
0	33408	26.45	1
0	33449	26.5	1
0	33450	26.5	1
0	33451	26.5	4
0	33452	26.5	1
0	33453	26.5	1
0	33454	26.5	1
0	33455	26.5	1
0	33456	26.5	4
0	33457	26.5	1
0	33458	26.5	1
0	33509	26.55	1
0	33510	26.55	1
0	33511	26.55	4
0	33512	26.55	1
0	33513	26.55	1
0	33554	26.6	1
0	33555	26.6	1
0	33556	26.6	4
0	33557	26.6	1
0	33558	26.6	1
0	33559	26.6	1
0	33560	26.6	1
0	33561	26.6	4
0	33562	26.6	1
0	33563	26.6	1
0	33614	26.65	1
0	33615	26.65	1
0	33616	26.65	4
0	33617	26.65	1
0	33618	26.65	1
0	33676	26.7	1
0	33677	26.7	1
0	33678	26.7	4
0	33679	26.7	1
0	33680	26.7	1
0	33681	26.7	1
0	33682	26.7	1
0	33683	26.7	4
0	33684	26.7	1
0	33685	26.7	1
0	33736	26.75	1
0	33737	26.75	1
0	33738	26.75	4
0	33739	26.75	1
0	33740	26.75	1
0	33781	26.8	1
0	33782	26.8	1
0	33783	26.8	4
0	33784	26.8	1
0	33785	26.8	1
0	33786	26.8	1
0	33787	26.8	1
0	33788	26.8	4
0	33789	26.8	1
0	33790	26.8	1
0	33846	26.85	1
0	33847	26.85	1
0	33848	26.85	4
0	33849	26.85	1
0	33850	26.85	1
0	33891	26.9	1
0	33892	26.9	1
0	33893	26.9	4
0	33894	26.9	1
0	33895	26.9	1
0	33896	26.9	1
0	33897	26.9	1
0	33898	26.9	4
0	33899	26.9	1
0	33900	26.9	1
0	33974	26.95	1
0	33975	26.95	1
0	33976	26.95	4
0	33977	26.95	1
0	33978	26.95	1
0	34024	27	1
0	34025	27	1
0	34026	27	4
0	34027	27	1
0	34028	27	1
0	34029	27	1
0	34030	27	1
0	34031	27	4
0	34032	27	1
0	34033	27	1
0	34084	27.05	1
0	34085	27.05	1
0	34086	27.05	4
0	34087	27.05	1
0	34088	27.05	1
0	34144	27.1	1
0	34145	27.1	1
0	34146	27.1	4
0	34147	27.1	1
0	34148	27.1	1
0	34149	27.1	1
0	34150	27.1	1
0	34151	27.1	4
0	34152	27.1	1
0	34153	27.1	1
0	34210	27.15	1
0	34211	27.15	1
0	34212	27.15	4
0	34213	27.15	1
0	34214	27.15	1
0	34255	27.2	1
0	34256	27.2	1
0	34257	27.2	4
0	34258	27.2	1
0	34259	27.2	1
0	34260	27.2	1
0	34261	27.2	1
0	34262	27.2	4
0	34263	27.2	1
0	34264	27.2	1
0	34325	27.25	1
0	34326	27.25	1
0	34327	27.25	4
0	34328	27.25	1
0	34329	27.25	1
0	34370	27.3	1
0	34371	27.3	1
0	34372	27.3	4
0	34373	27.3	1
0	34374	27.3	1
0	34375	27.3	1
0	34376	27.3	1
0	34377	27.3	4
0	34378	27.3	1
0	34379	27.3	1
0	34430	27.35	1
0	34431	27.35	1
0	34432	27.35	4
0	34433	27.35	1
0	34434	27.35	1
0	34475	27.4	1
0	34476	27.4	1
0	34477	27.4	4
0	34478	27.4	1
0	34479	27.4	1
0	34480	27.4	1
0	34481	27.4	1
0	34482	27.4	4
0	34483	27.4	1
0	34484	27.4	1
0	34535	27.45	1
0	34536	27.45	1
0	34537	27.45	4
0	34538	27.45	1
0	34539	27.45	1
0	34580	27.5	1
0	34581	27.5	1
0	34582	27.5	4
0	34583	27.5	1
0	34584	27.5	1
0	34585	27.5	1
0	34586	27.5	1
0	34587	27.5	4
0	34588	27.5	1
0	34589	27.5	1
0	34640	27.55	1
0	34641	27.55	1
0	34642	27.55	4
0	34643	27.55	1
0	34644	27.55	1
0	34685	27.6	1
0	34686	27.6	1
0	34687	27.6	4
0	34688	27.6	1
0	34689	27.6	1
0	34690	27.6	1
0	34691	27.6	1
0	34692	27.6	4
0	34693	27.6	1
0	34694	27.6	1
0	34750	27.65	1
0	34751	27.65	1
0	34752	27.65	4
0	34753	27.65	1
0	34754	27.65	1
0	34795	27.7	1
0	34796	27.7	1
0	34797	27.7	4
0	34798	27.7	1
0	34799	27.7	1
0	34800	27.7	1
0	34801	27.7	1
0	34802	27.7	4
0	34803	27.7	1
0	34804	27.7	1
0	34855	27.75	1
0	34856	27.75	1
0	34857	27.75	4
0	34858	27.75	1
0	34859	27.75	1
0	34900	27.8	1
0	34901	27.8	1
0	34902	27.8	4
0	34903	27.8	1
0	34904	27.8	1
0	34905	27.8	1
0	34906	27.8	1
0	34907	27.8	4
0	34908	27.8	1
0	34909	27.8	1
0	34960	27.85	1
0	34961	27.85	1
0	34962	27.85	4
0	34963	27.85	1
0	34964	27.85	1
0	35005	27.9	1
0	35006	27.9	1
0	35007	27.9	4
0	35008	27.9	1
0	35009	27.9	1
0	35010	27.9	1
0	35011	27.9	1
0	35012	27.9	4
0	35013	27.9	1
0	35014	27.9	1
0	35065	27.95	1
0	35066	27.95	1
0	35067	27.95	4
0	35068	27.95	1
0	35069	27.95	1
0	35110	28	1
0	35111	28	1
0	35112	28	4
0	35113	28	1
0	35114	28	1
0	35115	28	1
0	35116	28	1
0	35117	28	4
0	35118	28	1
0	35119	28	1
0	35170	28.05	1
0	35171	28.05	1
0	35172	28.05	4
0	35173	28.05	1
0	35174	28.05	1
0	35220	28.1	1
0	35221	28.1	1
0	35222	28.1	4
0	35223	28.1	1
0	35224	28.1	1
0	35225	28.1	1
0	35226	28.1	1
0	35227	28.1	4
0	35228	28.1	1
0	35229	28.1	1
0	35286	28.15	1
0	35287	28.15	1
0	35288	28.15	4
0	35289	28.15	1
0	35290	28.15	1
0	35331	28.2	1
0	35332	28.2	1
0	35333	28.2	4
0	35334	28.2	1
0	35335	28.2	1
0	35336	28.2	1
0	35337	28.2	1
0	35338	28.2	4
0	35339	28.2	1
0	35340	28.2	1
0	35391	28.25	1
0	35392	28.25	1
0	35393	28.25	4
0	35394	28.25	1
0	35395	28.25	1
0	35505	28.3	1
0	35506	28.3	1
0	35507	28.3	4
0	35508	28.3	1
0	35509	28.3	1
0	35510	28.3	1
0	35511	28.3	1
0	35512	28.3	4
0	35513	28.3	1
0	35514	28.3	1
0	35606	28.35	1
0	35607	28.35	1
0	35608	28.35	4
0	35609	28.35	1
0	35610	28.35	1
0	35706	28.4	1
0	35707	28.4	1
0	35708	28.4	4
0	35709	28.4	1
0	35710	28.4	1
0	35711	28.4	1
0	35712	28.4	1
0	35713	28.4	4
0	35714	28.4	1
0	35715	28.4	1
0	35830	28.45	1
0	35831	28.45	1
0	35832	28.45	4
0	35833	28.45	1
0	35834	28.45	1
0	35875	28.5	1
0	35876	28.5	1
0	35877	28.5	4
0	35878	28.5	1
0	35879	28.5	1
0	35880	28.5	1
0	35881	28.5	1
0	35882	28.5	4
0	35883	28.5	1
0	35884	28.5	1
0	35952	28.55	1
0	35953	28.55	1
0	35954	28.55	4
0	35955	28.55	1
0	35956	28.55	1
0	35997	28.6	1
0	35998	28.6	1
0	35999	28.6	4
0	36000	28.6	1
0	36001	28.6	1
0	36002	28.6	1
0	36003	28.6	1
0	36004	28.6	4
0	36005	28.6	1
0	36006	28.6	1
0	36057	28.65	1
0	36058	28.65	1
0	36059	28.65	4
0	36060	28.65	1
0	36061	28.65	1
0	36136	28.7	1
0	36137	28.7	1
0	36138	28.7	4
0	36139	28.7	1
0	36140	28.7	1
0	36141	28.7	1
0	36142	28.7	1
0	36143	28.7	4
0	36144	28.7	1
0	36145	28.7	1
0	36196	28.75	1
0	36197	28.75	1
0	36198	28.75	4
0	36199	28.75	1
0	36200	28.75	1
0	36241	28.8	1
0	36242	28.8	1
0	36243	28.8	4
0	36244	28.8	1
0	36245	28.8	1
0	36246	28.8	1
0	36247	28.8	1
0	36248	28.8	4
0	36249	28.8	1
0	36250	28.8	1
0	36328	28.85	1
0	36329	28.85	1
0	36330	28.85	4
0	36331	28.85	1
0	36332	28.85	1
0	36373	28.9	1
0	36374	28.9	1
0	36375	28.9	4
0	36376	28.9	1
0	36377	28.9	1
0	36378	28.9	1
0	36379	28.9	1
0	36380	28.9	4
0	36381	28.9	1
0	36382	28.9	1
0	36433	28.95	1
0	36434	28.95	1
0	36435	28.95	4
0	36436	28.95	1
0	36437	28.95	1
0	36501	29	1
0	36502	29	1
0	36503	29	4
0	36504	29	1
0	36505	29	1
0	36506	29	1
0	36507	29	1
0	36508	29	4
0	36509	29	1
0	36510	29	1
0	36561	29.05	1
0	36562	29.05	1
0	36563	29.05	4
0	36564	29.05	1
0	36565	29.05	1
0	36616	29.1	1
0	36617	29.1	1
0	36618	29.1	4
0	36619	29.1	1
0	36620	29.1	1
0	36621	29.1	1
0	36622	29.1	1
0	36623	29.1	4
0	36624	29.1	1
0	36625	29.1	1
0	36682	29.15	1
0	36683	29.15	1
0	36684	29.15	4
0	36685	29.15	1
0	36686	29.15	1
0	36727	29.2	1
0	36728	29.2	1
0	36729	29.2	4
0	36730	29.2	1
0	36731	29.2	1
0	36732	29.2	1
0	36733	29.2	1
0	36734	29.2	4
0	36735	29.2	1
0	36736	29.2	1
0	36792	29.25	1
0	36793	29.25	1
0	36794	29.25	4
0	36795	29.25	1
0	36796	29.25	1
0	36837	29.3	1
0	36838	29.3	1
0	36839	29.3	4
0	36840	29.3	1
0	36841	29.3	1
0	36842	29.3	1
0	36843	29.3	1
0	36844	29.3	4
0	36845	29.3	1
0	36846	29.3	1
0	36897	29.35	1
0	36898	29.35	1
0	36899	29.35	4
0	36900	29.35	1
0	36901	29.35	1
0	36999	29.4	1
0	37000	29.4	1
0	37001	29.4	4
0	37002	29.4	1
0	37003	29.4	1
0	37004	29.4	1
0	37005	29.4	1
0	37006	29.4	4
0	37007	29.4	1
0	37008	29.4	1
0	37116	29.45	1
0	37117	29.45	1
0	37118	29.45	4
0	37119	29.45	1
0	37120	29.45	1
0	37175	29.5	1
0	37176	29.5	1
0	37177	29.5	4
0	37178	29.5	1
0	37179	29.5	1
0	37180	29.5	1
0	37181	29.5	1
0	37182	29.5	4
0	37183	29.5	1
0	37184	29.5	1
0	37258	29.55	1
0	37259	29.55	1
0	37260	29.55	4
0	37261	29.55	1
0	37262	29.55	1
0	37303	29.6	1
0	37304	29.6	1
0	37305	29.6	4
0	37306	29.6	1
0	37307	29.6	1
0	37308	29.6	1
0	37309	29.6	1
0	37310	29.6	4
0	37311	29.6	1
0	37312	29.6	1
0	37363	29.65	1
0	37364	29.65	1
0	37365	29.65	4
0	37366	29.65	1
0	37367	29.65	1
0	37408	29.7	1
0	37409	29.7	1
0	37410	29.7	4
0	37411	29.7	1
0	37412	29.7	1
0	37413	29.7	1
0	37414	29.7	1
0	37415	29.7	4
0	37416	29.7	1
0	37417	29.7	1
0	37468	29.75	1
0	37469	29.75	1
0	37470	29.75	4
0	37471	29.75	1
0	37472	29.75	1
0	37513	29.8	1
0	37514	29.8	1
0	37515	29.8	4
0	37516	29.8	1
0	37517	29.8	1
0	37518	29.8	1
0	37519	29.8	1
0	37520	29.8	4
0	37521	29.8	1
0	37522	29.8	1
0	37573	29.85	1
0	37574	29.85	1
0	37575	29.85	4
0	37576	29.85	1
0	37577	29.85	1
0	37618	29.9	1
0	37619	29.9	1
0	37620	29.9	4
0	37621	29.9	1
0	37622	29.9	1
0	37623	29.9	1
0	37624	29.9	1
0	37625	29.9	4
0	37626	29.9	1
0	37627	29.9	1
0	37722	29.95	1
0	37723	29.95	1
0	37724	29.95	4
0	37725	29.95	1
0	37726	29.95	1
0	37767	30	1
0	37768	30	1
0	37769	30	4
0	37770	30	1
0	37771	30	1
0	37772	30	1
0	37773	30	1
0	37774	30	4
0	37775	30	1
0	37776	30	1
0	37827	30.05	1
0	37828	30.05	1
0	37829	30.05	4
0	37830	30.05	1
0	37831	30.05	1
0	37900	30.1	1
0	37901	30.1	1
0	37902	30.1	4
0	37903	30.1	1
0	37904	30.1	1
0	37905	30.1	1
0	37906	30.1	1
0	37907	30.1	4
0	37908	30.1	1
0	37909	30.1	1
0	37966	30.15	1
0	37967	30.15	1
0	37968	30.15	4
0	37969	30.15	1
0	37970	30.15	1
0	38011	30.2	1
0	38012	30.2	1
0	38013	30.2	4
0	38014	30.2	1
0	38015	30.2	1
0	38016	30.2	1
0	38017	30.2	1
0	38018	30.2	4
0	38019	30.2	1
0	38020	30.2	1
0	38071	30.25	1
0	38072	30.25	1
0	38073	30.25	4
0	38074	30.25	1
0	38075	30.25	1
0	38126	30.3	1
0	38127	30.3	1
0	38128	30.3	4
0	38129	30.3	1
0	38130	30.3	1
0	38131	30.3	1
0	38132	30.3	1
0	38133	30.3	4
0	38134	30.3	1
0	38135	30.3	1
0	38186	30.35	1
0	38187	30.35	1
0	38188	30.35	4
0	38189	30.35	1
0	38190	30.35	1
0	38231	30.4	1
0	38232	30.4	1
0	38233	30.4	4
0	38234	30.4	1
0	38235	30.4	1
0	38236	30.4	1
0	38237	30.4	1
0	38238	30.4	4
0	38239	30.4	1
0	38240	30.4	1
0	38319	30.45	1
0	38320	30.45	1
0	38321	30.45	4
0	38322	30.45	1
0	38323	30.45	1
0	38369	30.5	1
0	38370	30.5	1
0	38371	30.5	4
0	38372	30.5	1
0	38373	30.5	1
0	38374	30.5	1
0	38375	30.5	1
0	38376	30.5	4
0	38377	30.5	1
0	38378	30.5	1
0	38429	30.55	1
0	38430	30.55	1
0	38431	30.55	4
0	38432	30.55	1
0	38433	30.55	1
0	38491	30.6	1
0	38492	30.6	1
0	38493	30.6	4
0	38494	30.6	1
0	38495	30.6	1
0	38496	30.6	1
0	38497	30.6	1
0	38498	30.6	4
0	38499	30.6	1
0	38500	30.6	1
0	38551	30.65	1
0	38552	30.65	1
0	38553	30.65	4
0	38554	30.65	1
0	38555	30.65	1
0	38619	30.7	1
0	38620	30.7	1
0	38621	30.7	4
0	38622	30.7	1
0	38623	30.7	1
0	38624	30.7	1
0	38625	30.7	1
0	38626	30.7	4
0	38627	30.7	1
0	38628	30.7	1
0	38679	30.75	1
0	38680	30.75	1
0	38681	30.75	4
0	38682	30.75	1
0	38683	30.75	1
0	38724	30.8	1
0	38725	30.8	1
0	38726	30.8	4
0	38727	30.8	1
0	38728	30.8	1
0	38729	30.8	1
0	38730	30.8	1
0	38731	30.8	4
0	38732	30.8	1
0	38733	30.8	1
0	38789	30.85	1
0	38790	30.85	1
0	38791	30.85	4
0	38792	30.85	1
0	38793	30.85	1
0	38834	30.9	1
0	38835	30.9	1
0	38836	30.9	4
0	38837	30.9	1
0	38838	30.9	1
0	38839	30.9	1
0	38840	30.9	1
0	38841	30.9	4
0	38842	30.9	1
0	38843	30.9	1
0	38894	30.95	1
0	38895	30.95	1
0	38896	30.95	4
0	38897	30.95	1
0	38898	30.95	1
0	38944	31	1
0	38945	31	1
0	38946	31	4
0	38947	31	1
0	38948	31	1
0	38949	31	1
0	38950	31	1
0	38951	31	4
0	38952	31	1
0	38953	31	1
0	39004	31.05	1
0	39005	31.05	1
0	39006	31.05	4
0	39007	31.05	1
0	39008	31.05	1
0	39054	31.1	1
0	39055	31.1	1
0	39056	31.1	4
0	39057	31.1	1
0	39058	31.1	1
0	39059	31.1	1
0	39060	31.1	1
0	39061	31.1	4
0	39062	31.1	1
0	39063	31.1	1
0	39120	31.15	1
0	39121	31.15	1
0	39122	31.15	4
0	39123	31.15	1
0	39124	31.15	1
0	39165	31.2	1
0	39166	31.2	1
0	39167	31.2	4
0	39168	31.2	1
0	39169	31.2	1
0	39170	31.2	1
0	39171	31.2	1
0	39172	31.2	4
0	39173	31.2	1
0	39174	31.2	1
0	39225	31.25	1
0	39226	31.25	1
0	39227	31.25	4
0	39228	31.25	1
0	39229	31.25	1
0	39270	31.3	1
0	39271	31.3	1
0	39272	31.3	4
0	39273	31.3	1
0	39274	31.3	1
0	39275	31.3	1
0	39276	31.3	1
0	39277	31.3	4
0	39278	31.3	1
0	39279	31.3	1
0	39330	31.35	1
0	39331	31.35	1
0	39332	31.35	4
0	39333	31.35	1
0	39334	31.35	1
0	39375	31.4	1
0	39376	31.4	1
0	39377	31.4	4
0	39378	31.4	1
0	39379	31.4	1
0	39380	31.4	1
0	39381	31.4	1
0	39382	31.4	4
0	39383	31.4	1
0	39384	31.4	1
0	39435	31.45	1
0	39436	31.45	1
0	39437	31.45	4
0	39438	31.45	1
0	39439	31.45	1
0	39480	31.5	1
0	39481	31.5	1
0	39482	31.5	4
0	39483	31.5	1
0	39484	31.5	1
0	39485	31.5	1
0	39486	31.5	1
0	39487	31.5	4
0	39488	31.5	1
0	39489	31.5	1
0	39540	31.55	1
0	39541	31.55	1
0	39542	31.55	4
0	39543	31.55	1
0	39544	31.55	1
0	39585	31.6	1
0	39586	31.6	1
0	39587	31.6	4
0	39588	31.6	1
0	39589	31.6	1
0	39590	31.6	1
0	39591	31.6	1
0	39592	31.6	4
0	39593	31.6	1
0	39594	31.6	1
0	39645	31.65	1
0	39646	31.65	1
0	39647	31.65	4
0	39648	31.65	1
0	39649	31.65	1
0	39707	31.7	1
0	39708	31.7	1
0	39709	31.7	4
0	39710	31.7	1
0	39711	31.7	1
0	39712	31.7	1
0	39713	31.7	1
0	39714	31.7	4
0	39715	31.7	1
0	39716	31.7	1
0	39767	31.75	1
0	39768	31.75	1
0	39769	31.75	4
0	39770	31.75	1
0	39771	31.75	1
0	39812	31.8	1
0	39813	31.8	1
0	39814	31.8	4
0	39815	31.8	1
0	39816	31.8	1
0	39817	31.8	1
0	39818	31.8	1
0	39819	31.8	4
0	39820	31.8	1
0	39821	31.8	1
0	39877	31.85	1
0	39878	31.85	1
0	39879	31.85	4
0	39880	31.85	1
0	39881	31.85	1
0	39945	31.9	1
0	39946	31.9	1
0	39947	31.9	4
0	39948	31.9	1
0	39949	31.9	1
0	39950	31.9	1
0	39951	31.9	1
0	39952	31.9	4
0	39953	31.9	1
0	39954	31.9	1
0	40005	31.95	1
0	40006	31.95	1
0	40007	31.95	4
0	40008	31.95	1
0	40009	31.95	1
0	40055	32	1
0	40056	32	1
0	40057	32	4
0	40058	32	1
0	40059	32	1
0	40060	32	1
0	40061	32	1
0	40062	32	4
0	40063	32	1
0	40064	32	1
0	40120	32.05	1
0	40121	32.05	1
0	40122	32.05	4
0	40123	32.05	1
0	40124	32.05	1
0	40170	32.1	1
0	40171	32.1	1
0	40172	32.1	4
0	40173	32.1	1
0	40174	32.1	1
0	40175	32.1	1
0	40176	32.1	1
0	40177	32.1	4
0	40178	32.1	1
0	40179	32.1	1
0	40289	32.15	1
0	40290	32.15	1
0	40291	32.15	4
0	40292	32.15	1
0	40293	32.15	1
0	40343	32.2	1
0	40344	32.2	1
0	40345	32.2	4
0	40346	32.2	1
0	40347	32.2	1
0	40348	32.2	1
0	40349	32.2	1
0	40350	32.2	4
0	40351	32.2	1
0	40352	32.2	1
0	40474	32.25	1
0	40475	32.25	1
0	40476	32.25	4
0	40477	32.25	1
0	40478	32.25	1
0	40583	32.3	1
0	40584	32.3	1
0	40585	32.3	4
0	40586	32.3	1
0	40587	32.3	1
0	40588	32.3	1
0	40589	32.3	1
0	40590	32.3	4
0	40591	32.3	1
0	40592	32.3	1
0	40643	32.35	1
0	40644	32.35	1
0	40645	32.35	4
0	40646	32.35	1
0	40647	32.35	1
0	40762	32.4	1
0	40763	32.4	1
0	40764	32.4	4
0	40765	32.4	1
0	40766	32.4	1
0	40767	32.4	1
0	40768	32.4	1
0	40769	32.4	4
0	40770	32.4	1
0	40771	32.4	1
0	40877	32.45	1
0	40878	32.45	1
0	40879	32.45	4
0	40880	32.45	1
0	40881	32.45	1
0	40950	32.5	1
0	40951	32.5	1
0	40952	32.5	4
0	40953	32.5	1
0	40954	32.5	1
0	40955	32.5	1
0	40956	32.5	1
0	40957	32.5	4
0	40958	32.5	1
0	40959	32.5	1
0	41049	32.55	1
0	41050	32.55	1
0	41051	32.55	4
0	41052	32.55	1
0	41053	32.55	1
0	41105	32.6	1
0	41106	32.6	1
0	41107	32.6	4
0	41108	32.6	1
0	41109	32.6	1
0	41110	32.6	1
0	41111	32.6	1
0	41112	32.6	4
0	41113	32.6	1
0	41114	32.6	1
0	41165	32.65	1
0	41166	32.65	1
0	41167	32.65	4
0	41168	32.65	1
0	41169	32.65	1
0	41274	32.7	1
0	41275	32.7	1
0	41276	32.7	4
0	41277	32.7	1
0	41278	32.7	1
0	41279	32.7	1
0	41280	32.7	1
0	41281	32.7	4
0	41282	32.7	1
0	41283	32.7	1
0	41346	32.75	1
0	41347	32.75	1
0	41348	32.75	4
0	41349	32.75	1
0	41350	32.75	1
0	41427	32.8	1
0	41428	32.8	1
0	41429	32.8	4
0	41430	32.8	1
0	41431	32.8	1
0	41432	32.8	1
0	41433	32.8	1
0	41434	32.8	4
0	41435	32.8	1
0	41436	32.8	1
0	41533	32.85	1
0	41534	32.85	1
0	41535	32.85	4
0	41536	32.85	1
0	41537	32.85	1
0	41578	32.9	1
0	41579	32.9	1
0	41580	32.9	4
0	41581	32.9	1
0	41582	32.9	1
0	41583	32.9	1
0	41584	32.9	1
0	41585	32.9	4
0	41586	32.9	1
0	41587	32.9	1
0	41638	32.95	1
0	41639	32.95	1
0	41640	32.95	4
0	41641	32.95	1
0	41642	32.95	1
0	41688	33	1
0	41689	33	1
0	41690	33	4
0	41691	33	1
0	41692	33	1
0	41693	33	1
0	41694	33	1
0	41695	33	4
0	41696	33	1
0	41697	33	1
0	41748	33.05	1
0	41749	33.05	1
0	41750	33.05	4
0	41751	33.05	1
0	41752	33.05	1
0	41798	33.1	1
0	41799	33.1	1
0	41800	33.1	4
0	41801	33.1	1
0	41802	33.1	1
0	41803	33.1	1
0	41804	33.1	1
0	41805	33.1	4
0	41806	33.1	1
0	41807	33.1	1
0	41864	33.15	1
0	41865	33.15	1
0	41866	33.15	4
0	41867	33.15	1
0	41868	33.15	1
0	41909	33.2	1
0	41910	33.2	1
0	41911	33.2	4
0	41912	33.2	1
0	41913	33.2	1
0	41914	33.2	1
0	41915	33.2	1
0	41916	33.2	4
0	41917	33.2	1
0	41918	33.2	1
0	41974	33.25	1
0	41975	33.25	1
0	41976	33.25	4
0	41977	33.25	1
0	41978	33.25	1
0	42036	33.3	1
0	42037	33.3	1
0	42038	33.3	4
0	42039	33.3	1
0	42040	33.3	1
0	42041	33.3	1
0	42042	33.3	1
0	42043	33.3	4
0	42044	33.3	1
0	42045	33.3	1
0	42096	33.35	1
0	42097	33.35	1
0	42098	33.35	4
0	42099	33.35	1
0	42100	33.35	1
0	42141	33.4	1
0	42142	33.4	1
0	42143	33.4	4
0	42144	33.4	1
0	42145	33.4	1
0	42146	33.4	1
0	42147	33.4	1
0	42148	33.4	4
0	42149	33.4	1
0	42150	33.4	1
0	42211	33.45	1
0	42212	33.45	1
0	42213	33.45	4
0	42214	33.45	1
0	42215	33.45	1
0	42256	33.5	1
0	42257	33.5	1
0	42258	33.5	4
0	42259	33.5	1
0	42260	33.5	1
0	42261	33.5	1
0	42262	33.5	1
0	42263	33.5	4
0	42264	33.5	1
0	42265	33.5	1
0	42316	33.55	1
0	42317	33.55	1
0	42318	33.55	4
0	42319	33.55	1
0	42320	33.55	1
0	42361	33.6	1
0	42362	33.6	1
0	42363	33.6	4
0	42364	33.6	1
0	42365	33.6	1
0	42366	33.6	1
0	42367	33.6	1
0	42368	33.6	4
0	42369	33.6	1
0	42370	33.6	1
0	42497	33.65	1
0	42498	33.65	1
0	42499	33.65	4
0	42500	33.65	1
0	42501	33.65	1
0	42578	33.7	1
0	42579	33.7	1
0	42580	33.7	4
0	42581	33.7	1
0	42582	33.7	1
0	42583	33.7	1
0	42584	33.7	1
0	42585	33.7	4
0	42586	33.7	1
0	42587	33.7	1
0	42704	33.75	1
0	42705	33.75	1
0	42706	33.75	4
0	42707	33.75	1
0	42708	33.75	1
0	42804	33.8	1
0	42805	33.8	1
0	42806	33.8	4
0	42807	33.8	1
0	42808	33.8	1
0	42809	33.8	1
0	42810	33.8	1
0	42811	33.8	4
0	42812	33.8	1
0	42813	33.8	1
0	42895	33.85	1
0	42896	33.85	1
0	42897	33.85	4
0	42898	33.85	1
0	42899	33.85	1
0	42962	33.9	1
0	42963	33.9	1
0	42964	33.9	4
0	42965	33.9	1
0	42966	33.9	1
0	42967	33.9	1
0	42968	33.9	1
0	42969	33.9	4
0	42970	33.9	1
0	42971	33.9	1
0	43022	33.95	1
0	43023	33.95	1
0	43024	33.95	4
0	43025	33.95	1
0	43026	33.95	1
0	43090	34	1
0	43091	34	1
0	43092	34	4
0	43093	34	1
0	43094	34	1
0	43095	34	1
0	43096	34	1
0	43097	34	4
0	43098	34	1
0	43099	34	1
0	43150	34.05	1
0	43151	34.05	1
0	43152	34.05	4
0	43153	34.05	1
0	43154	34.05	1
0	43200	34.1	1
0	43201	34.1	1
0	43202	34.1	4
0	43203	34.1	1
0	43204	34.1	1
0	43205	34.1	1
0	43206	34.1	1
0	43207	34.1	4
0	43208	34.1	1
0	43209	34.1	1
0	43266	34.15	1
0	43267	34.15	1
0	43268	34.15	4
0	43269	34.15	1
0	43270	34.15	1
0	43316	34.2	1
0	43317	34.2	1
0	43318	34.2	4
0	43319	34.2	1
0	43320	34.2	1
0	43321	34.2	1
0	43322	34.2	1
0	43323	34.2	4
0	43324	34.2	1
0	43325	34.2	1
0	43376	34.25	1
0	43377	34.25	1
0	43378	34.25	4
0	43379	34.25	1
0	43380	34.25	1
0	43421	34.3	1
0	43422	34.3	1
0	43423	34.3	4
0	43424	34.3	1
0	43425	34.3	1
0	43426	34.3	1
0	43427	34.3	1
0	43428	34.3	4
0	43429	34.3	1
0	43430	34.3	1
0	43481	34.35	1
0	43482	34.35	1
0	43483	34.35	4
0	43484	34.35	1
0	43485	34.35	1
0	43526	34.4	1
0	43527	34.4	1
0	43528	34.4	4
0	43529	34.4	1
0	43530	34.4	1
0	43531	34.4	1
0	43532	34.4	1
0	43533	34.4	4
0	43534	34.4	1
0	43535	34.4	1
0	43632	34.45	1
0	43633	34.45	1
0	43634	34.45	4
0	43635	34.45	1
0	43636	34.45	1
0	43677	34.5	1
0	43678	34.5	1
0	43679	34.5	4
0	43680	34.5	1
0	43681	34.5	1
0	43682	34.5	1
0	43683	34.5	1
0	43684	34.5	4
0	43685	34.5	1
0	43686	34.5	1
0	43737	34.55	1
0	43738	34.55	1
0	43739	34.55	4
0	43740	34.55	1
0	43741	34.55	1
0	43834	34.6	1
0	43835	34.6	1
0	43836	34.6	4
0	43837	34.6	1
0	43838	34.6	1
0	43839	34.6	1
0	43840	34.6	1
0	43841	34.6	4
0	43842	34.6	1
0	43843	34.6	1
0	43935	34.65	1
0	43936	34.65	1
0	43937	34.65	4
0	43938	34.65	1
0	43939	34.65	1
0	44046	34.7	1
0	44047	34.7	1
0	44048	34.7	4
0	44049	34.7	1
0	44050	34.7	1
0	44051	34.7	1
0	44052	34.7	1
0	44053	34.7	4
0	44054	34.7	1
0	44055	34.7	1
0	44106	34.75	1
0	44107	34.75	1
0	44108	34.75	4
0	44109	34.75	1
0	44110	34.75	1
0	44151	34.8	1
0	44152	34.8	1
0	44153	34.8	4
0	44154	34.8	1
0	44155	34.8	1
0	44156	34.8	1
0	44157	34.8	1
0	44158	34.8	4
0	44159	34.8	1
0	44160	34.8	1
0	44211	34.85	1
0	44212	34.85	1
0	44213	34.85	4
[...]
0	239516	192.3	4
0	239517	192.3	1
0	239518	192.3	1
0	239519	192.3	1
0	239520	192.3	1
0	239521	192.3	4
0	239522	192.3	1
0	239523	192.3	1
0	239574	192.35	1
0	239575	192.35	1
0	239576	192.35	4
0	239577	192.35	1
0	239578	192.35	1
0	239624	192.4	1
0	239625	192.4	1
0	239626	192.4	4
0	239627	192.4	1
0	239628	192.4	1
0	239629	192.4	1
0	239630	192.4	1
0	239631	192.4	4
0	239632	192.4	1
0	239633	192.4	1
0	239684	192.45	1
0	239685	192.45	1
0	239686	192.45	4
0	239687	192.45	1
0	239688	192.45	1
0	239746	192.5	1
0	239747	192.5	1
0	239748	192.5	4
0	239749	192.5	1
0	239750	192.5	1
0	239751	192.5	1
0	239752	192.5	1
0	239753	192.5	4
0	239754	192.5	1
0	239755	192.5	1
0	239806	192.55	1
0	239807	192.55	1
0	239808	192.55	4
0	239809	192.55	1
0	239810	192.55	1
0	239851	192.6	1
0	239852	192.6	1
0	239853	192.6	4
0	239854	192.6	1
0	239855	192.6	1
0	239856	192.6	1
0	239857	192.6	1
0	239858	192.6	4
0	239859	192.6	1
0	239860	192.6	1
0	239916	192.65	1
0	239917	192.65	1
0	239918	192.65	4
0	239919	192.65	1
0	239920	192.65	1
0	239961	192.7	1
0	239962	192.7	1
0	239963	192.7	4
0	239964	192.7	1
0	239965	192.7	1
0	239966	192.7	1
0	239967	192.7	1
0	239968	192.7	4
0	239969	192.7	1
0	239970	192.7	1
0	240021	192.75	1
0	240022	192.75	1
0	240023	192.75	4
0	240024	192.75	1
0	240025	192.75	1
0	240066	192.8	1
0	240067	192.8	1
0	240068	192.8	4
0	240069	192.8	1
0	240070	192.8	1
0	240071	192.8	1
0	240072	192.8	1
0	240073	192.8	4
0	240074	192.8	1
0	240075	192.8	1
0	240131	192.85	1
0	240132	192.85	1
0	240133	192.85	4
0	240134	192.85	1
0	240135	192.85	1
0	240176	192.9	1
0	240177	192.9	1
0	240178	192.9	4
0	240179	192.9	1
0	240180	192.9	1
0	240181	192.9	1
0	240182	192.9	1
0	240183	192.9	4
0	240184	192.9	1
0	240185	192.9	1
0	240236	192.95	1
0	240237	192.95	1
0	240238	192.95	4
0	240239	192.95	1
0	240240	192.95	1
0	240304	193	1
0	240305	193	1
0	240306	193	4
0	240307	193	1
0	240308	193	1
0	240309	193	1
0	240310	193	1
0	240311	193	4
0	240312	193	1
0	240313	193	1
0	240364	193.05	1
0	240365	193.05	1
0	240366	193.05	4
0	240367	193.05	1
0	240368	193.05	1
0	240409	193.1	1
0	240410	193.1	1
0	240411	193.1	4
0	240412	193.1	1
0	240413	193.1	1
0	240414	193.1	1
0	240415	193.1	1
0	240416	193.1	4
0	240417	193.1	1
0	240418	193.1	1
0	240469	193.15	1
0	240470	193.15	1
0	240471	193.15	4
0	240472	193.15	1
0	240473	193.15	1
0	240514	193.2	1
0	240515	193.2	1
0	240516	193.2	4
0	240517	193.2	1
0	240518	193.2	1
0	240519	193.2	1
0	240520	193.2	1
0	240521	193.2	4
0	240522	193.2	1
0	240523	193.2	1
0	240574	193.25	1
0	240575	193.25	1
0	240576	193.25	4
0	240577	193.25	1
0	240578	193.25	1
0	240619	193.3	1
0	240620	193.3	1
0	240621	193.3	4
0	240622	193.3	1
0	240623	193.3	1
0	240624	193.3	1
0	240625	193.3	1
0	240626	193.3	4
0	240627	193.3	1
0	240628	193.3	1
0	240679	193.35	1
0	240680	193.35	1
0	240681	193.35	4
0	240682	193.35	1
0	240683	193.35	1
0	240752	193.4	1
0	240753	193.4	1
0	240754	193.4	4
0	240755	193.4	1
0	240756	193.4	1
0	240757	193.4	1
0	240758	193.4	1
0	240759	193.4	4
0	240760	193.4	1
0	240761	193.4	1
0	240812	193.45	1
0	240813	193.45	1
0	240814	193.45	4
0	240815	193.45	1
0	240816	193.45	1
0	240857	193.5	1
0	240858	193.5	1
0	240859	193.5	4
0	240860	193.5	1
0	240861	193.5	1
0	240862	193.5	1
0	240863	193.5	1
0	240864	193.5	4
0	240865	193.5	1
0	240866	193.5	1
0	240940	193.55	1
0	240941	193.55	1
0	240942	193.55	4
0	240943	193.55	1
0	240944	193.55	1
0	240985	193.6	1
0	240986	193.6	1
0	240987	193.6	4
0	240988	193.6	1
0	240989	193.6	1
0	240990	193.6	1
0	240991	193.6	1
0	240992	193.6	4
0	240993	193.6	1
0	240994	193.6	1
0	241045	193.65	1
0	241046	193.65	1
0	241047	193.65	4
0	241048	193.65	1
0	241049	193.65	1
0	241090	193.7	1
0	241091	193.7	1
0	241092	193.7	4
0	241093	193.7	1
0	241094	193.7	1
0	241095	193.7	1
0	241096	193.7	1
0	241097	193.7	4
0	241098	193.7	1
0	241099	193.7	1
0	241150	193.75	1
0	241151	193.75	1
0	241152	193.75	4
0	241153	193.75	1
0	241154	193.75	1
0	241195	193.8	1
0	241196	193.8	1
0	241197	193.8	4
0	241198	193.8	1
0	241199	193.8	1
0	241200	193.8	1
0	241201	193.8	1
0	241202	193.8	4
0	241203	193.8	1
0	241204	193.8	1
0	241272	193.85	1
0	241273	193.85	1
0	241274	193.85	4
0	241275	193.85	1
0	241276	193.85	1
0	241317	193.9	1
0	241318	193.9	1
0	241319	193.9	4
0	241320	193.9	1
0	241321	193.9	1
0	241322	193.9	1
0	241323	193.9	1
0	241324	193.9	4
0	241325	193.9	1
0	241326	193.9	1
0	241382	193.95	1
0	241383	193.95	1
0	241384	193.95	4
0	241385	193.95	1
0	241386	193.95	1
0	241432	194	1
0	241433	194	1
0	241434	194	4
0	241435	194	1
0	241436	194	1
0	241437	194	1
0	241438	194	1
0	241439	194	4
0	241440	194	1
0	241441	194	1
0	241492	194.05	1
0	241493	194.05	1
0	241494	194.05	4
0	241495	194.05	1
0	241496	194.05	1
0	241542	194.1	1
0	241543	194.1	1
0	241544	194.1	4
0	241545	194.1	1
0	241546	194.1	1
0	241547	194.1	1
0	241548	194.1	1
0	241549	194.1	4
0	241550	194.1	1
0	241551	194.1	1
0	241602	194.15	1
0	241603	194.15	1
0	241604	194.15	4
0	241605	194.15	1
0	241606	194.15	1
0	241647	194.2	1
0	241648	194.2	1
0	241649	194.2	4
0	241650	194.2	1
0	241651	194.2	1
0	241652	194.2	1
0	241653	194.2	1
0	241654	194.2	4
0	241655	194.2	1
0	241656	194.2	1
0	241724	194.25	1
0	241725	194.25	1
0	241726	194.25	4
0	241727	194.25	1
0	241728	194.25	1
0	241769	194.3	1
0	241770	194.3	1
0	241771	194.3	4
0	241772	194.3	1
0	241773	194.3	1
0	241774	194.3	1
0	241775	194.3	1
0	241776	194.3	4
0	241777	194.3	1
0	241778	194.3	1
0	241829	194.35	1
0	241830	194.35	1
0	241831	194.35	4
0	241832	194.35	1
0	241833	194.35	1
0	241874	194.4	1
0	241875	194.4	1
0	241876	194.4	4
0	241877	194.4	1
0	241878	194.4	1
0	241879	194.4	1
0	241880	194.4	1
0	241881	194.4	4
0	241882	194.4	1
0	241883	194.4	1
0	241934	194.45	1
0	241935	194.45	1
0	241936	194.45	4
0	241937	194.45	1
0	241938	194.45	1
0	241979	194.5	1
0	241980	194.5	1
0	241981	194.5	4
0	241982	194.5	1
0	241983	194.5	1
0	241984	194.5	1
0	241985	194.5	1
0	241986	194.5	4
0	241987	194.5	1
0	241988	194.5	1
0	242039	194.55	1
0	242040	194.55	1
0	242041	194.55	4
0	242042	194.55	1
0	242043	194.55	1
0	242107	194.6	1
0	242108	194.6	1
0	242109	194.6	4
0	242110	194.6	1
0	242111	194.6	1
0	242112	194.6	1
0	242113	194.6	1
0	242114	194.6	4
0	242115	194.6	1
0	242116	194.6	1
0	242172	194.65	1
0	242173	194.65	1
0	242174	194.65	4
0	242175	194.65	1
0	242176	194.65	1
0	242217	194.7	1
0	242218	194.7	1
0	242219	194.7	4
0	242220	194.7	1
0	242221	194.7	1
0	242222	194.7	1
0	242223	194.7	1
0	242224	194.7	4
0	242225	194.7	1
0	242226	194.7	1
0	242300	194.75	1
0	242301	194.75	1
0	242302	194.75	4
0	242303	194.75	1
0	242304	194.75	1
0	242345	194.8	1
0	242346	194.8	1
0	242347	194.8	4
0	242348	194.8	1
0	242349	194.8	1
0	242350	194.8	1
0	242351	194.8	1
0	242352	194.8	4
0	242353	194.8	1
0	242354	194.8	1
0	242405	194.85	1
0	242406	194.85	1
0	242407	194.85	4
0	242408	194.85	1
0	242409	194.85	1
0	242450	194.9	1
0	242451	194.9	1
0	242452	194.9	4
0	242453	194.9	1
0	242454	194.9	1
0	242455	194.9	1
0	242456	194.9	1
0	242457	194.9	4
0	242458	194.9	1
0	242459	194.9	1
0	242510	194.95	1
0	242511	194.95	1
0	242512	194.95	4
0	242513	194.95	1
0	242514	194.95	1
0	242555	195	1
0	242556	195	1
0	242557	195	4
0	242558	195	1
0	242559	195	1
0	242560	195	1
0	242561	195	1
0	242562	195	4
0	242563	195	1
0	242564	195	1
0	242615	195.05	1
0	242616	195.05	1
0	242617	195.05	4
0	242618	195.05	1
0	242619	195.05	1
0	242660	195.1	1
0	242661	195.1	1
0	242662	195.1	4
0	242663	195.1	1
0	242664	195.1	1
0	242665	195.1	1
0	242666	195.1	1
0	242667	195.1	4
0	242668	195.1	1
0	242669	195.1	1
0	242766	195.15	1
0	242767	195.15	1
0	242768	195.15	4
0	242769	195.15	1
0	242770	195.15	1
0	242811	195.2	1
0	242812	195.2	1
0	242813	195.2	4
0	242814	195.2	1
0	242815	195.2	1
0	242816	195.2	1
0	242817	195.2	1
0	242818	195.2	4
0	242819	195.2	1
0	242820	195.2	1
0	242871	195.25	1
0	242872	195.25	1
0	242873	195.25	4
0	242874	195.25	1
0	242875	195.25	1
0	242926	195.3	1
0	242927	195.3	1
0	242928	195.3	4
0	242929	195.3	1
0	242930	195.3	1
0	242931	195.3	1
0	242932	195.3	1
0	242933	195.3	4
0	242934	195.3	1
0	242935	195.3	1
0	242986	195.35	1
0	242987	195.35	1
0	242988	195.35	4
0	242989	195.35	1
0	242990	195.35	1
0	243031	195.4	1
0	243032	195.4	1
0	243033	195.4	4
0	243034	195.4	1
0	243035	195.4	1
0	243036	195.4	1
0	243037	195.4	1
0	243038	195.4	4
0	243039	195.4	1
0	243040	195.4	1
0	243108	195.45	1
0	243109	195.45	1
0	243110	195.45	4
0	243111	195.45	1
0	243112	195.45	1
0	243153	195.5	1
0	243154	195.5	1
0	243155	195.5	4
0	243156	195.5	1
0	243157	195.5	1
0	243158	195.5	1
0	243159	195.5	1
0	243160	195.5	4
0	243161	195.5	1
0	243162	195.5	1
0	243213	195.55	1
0	243214	195.55	1
0	243215	195.55	4
0	243216	195.55	1
0	243217	195.55	1
0	243281	195.6	1
0	243282	195.6	1
0	243283	195.6	4
0	243284	195.6	1
0	243285	195.6	1
0	243286	195.6	1
0	243287	195.6	1
0	243288	195.6	4
0	243289	195.6	1
0	243290	195.6	1
0	243341	195.65	1
0	243342	195.65	1
0	243343	195.65	4
0	243344	195.65	1
0	243345	195.65	1
0	243386	195.7	1
0	243387	195.7	1
0	243388	195.7	4
0	243389	195.7	1
0	243390	195.7	1
0	243391	195.7	1
0	243392	195.7	1
0	243393	195.7	4
0	243394	195.7	1
0	243395	195.7	1
0	243446	195.75	1
0	243447	195.75	1
0	243448	195.75	4
0	243449	195.75	1
0	243450	195.75	1
0	243491	195.8	1
0	243492	195.8	1
0	243493	195.8	4
0	243494	195.8	1
0	243495	195.8	1
0	243496	195.8	1
0	243497	195.8	1
0	243498	195.8	4
0	243499	195.8	1
0	243500	195.8	1
0	243556	195.85	1
0	243557	195.85	1
0	243558	195.85	4
0	243559	195.85	1
0	243560	195.85	1
0	243601	195.9	1
0	243602	195.9	1
0	243603	195.9	4
0	243604	195.9	1
0	243605	195.9	1
0	243606	195.9	1
0	243607	195.9	1
0	243608	195.9	4
0	243609	195.9	1
0	243610	195.9	1
0	243661	195.95	1
0	243662	195.95	1
0	243663	195.95	4
0	243664	195.95	1
0	243665	195.95	1
0	243711	196	1
0	243712	196	1
0	243713	196	4
0	243714	196	1
0	243715	196	1
0	243716	196	1
0	243717	196	1
0	243718	196	4
0	243719	196	1
0	243720	196	1
0	243771	196.05	1
0	243772	196.05	1
0	243773	196.05	4
0	243774	196.05	1
0	243775	196.05	1
0	243816	196.1	1
0	243817	196.1	1
0	243818	196.1	4
0	243819	196.1	1
0	243820	196.1	1
0	243821	196.1	1
0	243822	196.1	1
0	243823	196.1	4
0	243824	196.1	1
0	243825	196.1	1
0	243876	196.15	1
0	243877	196.15	1
0	243878	196.15	4
0	243879	196.15	1
0	243880	196.15	1
0	243921	196.2	1
0	243922	196.2	1
0	243923	196.2	4
0	243924	196.2	1
0	243925	196.2	1
0	243926	196.2	1
0	243927	196.2	1
0	243928	196.2	4
0	243929	196.2	1
0	243930	196.2	1
0	243986	196.25	1
0	243987	196.25	1
0	243988	196.25	4
0	243989	196.25	1
0	243990	196.25	1
0	244031	196.3	1
0	244032	196.3	1
0	244033	196.3	4
0	244034	196.3	1
0	244035	196.3	1
0	244036	196.3	1
0	244037	196.3	1
0	244038	196.3	4
0	244039	196.3	1
0	244040	196.3	1
0	244091	196.35	1
0	244092	196.35	1
0	244093	196.35	4
0	244094	196.35	1
0	244095	196.35	1
0	244136	196.4	1
0	244137	196.4	1
0	244138	196.4	4
0	244139	196.4	1
0	244140	196.4	1
0	244141	196.4	1
0	244142	196.4	1
0	244143	196.4	4
0	244144	196.4	1
0	244145	196.4	1
0	244196	196.45	1
0	244197	196.45	1
0	244198	196.45	4
0	244199	196.45	1
0	244200	196.45	1
0	244241	196.5	1
0	244242	196.5	1
0	244243	196.5	4
0	244244	196.5	1
0	244245	196.5	1
0	244246	196.5	1
0	244247	196.5	1
0	244248	196.5	4
0	244249	196.5	1
0	244250	196.5	1
0	244301	196.55	1
0	244302	196.55	1
0	244303	196.55	4
0	244304	196.55	1
0	244305	196.55	1
0	244346	196.6	1
0	244347	196.6	1
0	244348	196.6	4
0	244349	196.6	1
0	244350	196.6	1
0	244351	196.6	1
0	244352	196.6	1
0	244353	196.6	4
0	244354	196.6	1
0	244355	196.6	1
0	244406	196.65	1
0	244407	196.65	1
0	244408	196.65	4
0	244409	196.65	1
0	244410	196.65	1
0	244451	196.7	1
0	244452	196.7	1
0	244453	196.7	4
0	244454	196.7	1
0	244455	196.7	1
0	244456	196.7	1
0	244457	196.7	1
0	244458	196.7	4
0	244459	196.7	1
0	244460	196.7	1
0	244557	196.75	1
0	244558	196.75	1
0	244559	196.75	4
0	244560	196.75	1
0	244561	196.75	1
0	244602	196.8	1
0	244603	196.8	1
0	244604	196.8	4
0	244605	196.8	1
0	244606	196.8	1
0	244607	196.8	1
0	244608	196.8	1
0	244609	196.8	4
0	244610	196.8	1
0	244611	196.8	1
0	244662	196.85	1
0	244663	196.85	1
0	244664	196.85	4
0	244665	196.85	1
0	244666	196.85	1
0	244717	196.9	1
0	244718	196.9	1
0	244719	196.9	4
0	244720	196.9	1
0	244721	196.9	1
0	244722	196.9	1
0	244723	196.9	1
0	244724	196.9	4
0	244725	196.9	1
0	244726	196.9	1
0	244777	196.95	1
0	244778	196.95	1
0	244779	196.95	4
0	244780	196.95	1
0	244781	196.95	1
0	244827	197	1
0	244828	197	1
0	244829	197	4
0	244830	197	1
0	244831	197	1
0	244832	197	1
0	244833	197	1
0	244834	197	4
0	244835	197	1
0	244836	197	1
0	244887	197.05	1
0	244888	197.05	1
0	244889	197.05	4
0	244890	197.05	1
0	244891	197.05	1
0	244932	197.1	1
0	244933	197.1	1
0	244934	197.1	4
0	244935	197.1	1
0	244936	197.1	1
0	244937	197.1	1
0	244938	197.1	1
0	244939	197.1	4
0	244940	197.1	1
0	244941	197.1	1
0	244992	197.15	1
0	244993	197.15	1
0	244994	197.15	4
0	244995	197.15	1
0	244996	197.15	1
0	245060	197.2	1
0	245061	197.2	1
0	245062	197.2	4
0	245063	197.2	1
0	245064	197.2	1
0	245065	197.2	1
0	245066	197.2	1
0	245067	197.2	4
0	245068	197.2	1
0	245069	197.2	1
0	245120	197.25	1
0	245121	197.25	1
0	245122	197.25	4
0	245123	197.25	1
0	245124	197.25	1
0	245165	197.3	1
0	245166	197.3	1
0	245167	197.3	4
0	245168	197.3	1
0	245169	197.3	1
0	245170	197.3	1
0	245171	197.3	1
0	245172	197.3	4
0	245173	197.3	1
0	245174	197.3	1
0	245242	197.35	1
0	245243	197.35	1
0	245244	197.35	4
0	245245	197.35	1
0	245246	197.35	1
0	245287	197.4	1
0	245288	197.4	1
0	245289	197.4	4
0	245290	197.4	1
0	245291	197.4	1
0	245292	197.4	1
0	245293	197.4	1
0	245294	197.4	4
0	245295	197.4	1
0	245296	197.4	1
0	245352	197.45	1
0	245353	197.45	1
0	245354	197.45	4
0	245355	197.45	1
0	245356	197.45	1
0	245397	197.5	1
0	245398	197.5	1
0	245399	197.5	4
0	245400	197.5	1
0	245401	197.5	1
0	245402	197.5	1
0	245403	197.5	1
0	245404	197.5	4
0	245405	197.5	1
0	245406	197.5	1
0	245457	197.55	1
0	245458	197.55	1
0	245459	197.55	4
0	245460	197.55	1
0	245461	197.55	1
0	245502	197.6	1
0	245503	197.6	1
0	245504	197.6	4
0	245505	197.6	1
0	245506	197.6	1
0	245507	197.6	1
0	245508	197.6	1
0	245509	197.6	4
0	245510	197.6	1
0	245511	197.6	1
0	245562	197.65	1
0	245563	197.65	1
0	245564	197.65	4
0	245565	197.65	1
0	245566	197.65	1
0	245607	197.7	1
0	245608	197.7	1
0	245609	197.7	4
0	245610	197.7	1
0	245611	197.7	1
0	245612	197.7	1
0	245613	197.7	1
0	245614	197.7	4
0	245615	197.7	1
0	245616	197.7	1
0	245690	197.75	1
0	245691	197.75	1
0	245692	197.75	4
0	245693	197.75	1
0	245694	197.75	1
0	245735	197.8	1
0	245736	197.8	1
0	245737	197.8	4
0	245738	197.8	1
0	245739	197.8	1
0	245740	197.8	1
0	245741	197.8	1
0	245742	197.8	4
0	245743	197.8	1
0	245744	197.8	1
0	245818	197.85	1
0	245819	197.85	1
0	245820	197.85	4
0	245821	197.85	1
0	245822	197.85	1
0	245886	197.9	1
0	245887	197.9	1
0	245888	197.9	4
0	245889	197.9	1
0	245890	197.9	1
0	245891	197.9	1
0	245892	197.9	1
0	245893	197.9	4
0	245894	197.9	1
0	245895	197.9	1
0	245946	197.95	1
0	245947	197.95	1
0	245948	197.95	4
0	245949	197.95	1
0	245950	197.95	1
0	245996	198	1
0	245997	198	1
0	245998	198	4
0	245999	198	1
0	246000	198	1
0	246001	198	1
0	246002	198	1
0	246003	198	4
0	246004	198	1
0	246005	198	1
0	246056	198.05	1
0	246057	198.05	1
0	246058	198.05	4
0	246059	198.05	1
0	246060	198.05	1
0	246101	198.1	1
0	246102	198.1	1
0	246103	198.1	4
0	246104	198.1	1
0	246105	198.1	1
0	246106	198.1	1
0	246107	198.1	1
0	246108	198.1	4
0	246109	198.1	1
0	246110	198.1	1
0	246161	198.15	1
0	246162	198.15	1
0	246163	198.15	4
0	246164	198.15	1
0	246165	198.15	1
0	246206	198.2	1
0	246207	198.2	1
0	246208	198.2	4
0	246209	198.2	1
0	246210	198.2	1
0	246211	198.2	1
0	246212	198.2	1
0	246213	198.2	4
0	246214	198.2	1
0	246215	198.2	1
0	246266	198.25	1
0	246267	198.25	1
0	246268	198.25	4
0	246269	198.25	1
0	246270	198.25	1
0	246334	198.3	1
0	246335	198.3	1
0	246336	198.3	4
0	246337	198.3	1
0	246338	198.3	1
0	246339	198.3	1
0	246340	198.3	1
0	246341	198.3	4
0	246342	198.3	1
0	246343	198.3	1
0	246422	198.35	1
0	246423	198.35	1
0	246424	198.35	4
0	246425	198.35	1
0	246426	198.35	1
0	246467	198.4	1
0	246468	198.4	1
0	246469	198.4	4
0	246470	198.4	1
0	246471	198.4	1
0	246472	198.4	1
0	246473	198.4	1
0	246474	198.4	4
0	246475	198.4	1
0	246476	198.4	1
0	246532	198.45	1
0	246533	198.45	1
0	246534	198.45	4
0	246535	198.45	1
0	246536	198.45	1
0	246623	198.5	1
0	246624	198.5	1
0	246625	198.5	4
0	246626	198.5	1
0	246627	198.5	1
0	246628	198.5	1
0	246629	198.5	1
0	246630	198.5	4
0	246631	198.5	1
0	246632	198.5	1
0	246683	198.55	1
0	246684	198.55	1
0	246685	198.55	4
0	246686	198.55	1
0	246687	198.55	1
0	246728	198.6	1
0	246729	198.6	1
0	246730	198.6	4
0	246731	198.6	1
0	246732	198.6	1
0	246733	198.6	1
0	246734	198.6	1
0	246735	198.6	4
0	246736	198.6	1
0	246737	198.6	1
0	246788	198.65	1
0	246789	198.65	1
0	246790	198.65	4
0	246791	198.65	1
0	246792	198.65	1
0	246833	198.7	1
0	246834	198.7	1
0	246835	198.7	4
0	246836	198.7	1
0	246837	198.7	1
0	246838	198.7	1
0	246839	198.7	1
0	246840	198.7	4
0	246841	198.7	1
0	246842	198.7	1
0	246893	198.75	1
0	246894	198.75	1
0	246895	198.75	4
0	246896	198.75	1
0	246897	198.75	1
0	246938	198.8	1
0	246939	198.8	1
0	246940	198.8	4
0	246941	198.8	1
0	246942	198.8	1
0	246943	198.8	1
0	246944	198.8	1
0	246945	198.8	4
0	246946	198.8	1
0	246947	198.8	1
0	246998	198.85	1
0	246999	198.85	1
0	247000	198.85	4
0	247001	198.85	1
0	247002	198.85	1
0	247089	198.9	1
0	247090	198.9	1
0	247091	198.9	4
0	247092	198.9	1
0	247093	198.9	1
0	247094	198.9	1
0	247095	198.9	1
0	247096	198.9	4
0	247097	198.9	1
0	247098	198.9	1
0	247149	198.95	1
0	247150	198.95	1
0	247151	198.95	4
0	247152	198.95	1
0	247153	198.95	1
0	247194	199	1
0	247195	199	1
0	247196	199	4
0	247197	199	1
0	247198	199	1
0	247199	199	1
0	247200	199	1
0	247201	199	4
0	247202	199	1
0	247203	199	1
0	247300	199.05	1
0	247301	199.05	1
0	247302	199.05	4
0	247303	199.05	1
0	247304	199.05	1
0	247345	199.1	1
0	247346	199.1	1
0	247347	199.1	4
0	247348	199.1	1
0	247349	199.1	1
0	247350	199.1	1
0	247351	199.1	1
0	247352	199.1	4
0	247353	199.1	1
0	247354	199.1	1
0	247405	199.15	1
0	247406	199.15	1
0	247407	199.15	4
0	247408	199.15	1
0	247409	199.15	1
0	247450	199.2	1
0	247451	199.2	1
0	247452	199.2	4
0	247453	199.2	1
0	247454	199.2	1
0	247455	199.2	1
0	247456	199.2	1
0	247457	199.2	4
0	247458	199.2	1
0	247459	199.2	1
0	247510	199.25	1
0	247511	199.25	1
0	247512	199.25	4
0	247513	199.25	1
0	247514	199.25	1
0	247555	199.3	1
0	247556	199.3	1
0	247557	199.3	4
0	247558	199.3	1
0	247559	199.3	1
0	247560	199.3	1
0	247561	199.3	1
0	247562	199.3	4
0	247563	199.3	1
0	247564	199.3	1
0	247615	199.35	1
0	247616	199.35	1
0	247617	199.35	4
0	247618	199.35	1
0	247619	199.35	1
0	247660	199.4	1
0	247661	199.4	1
0	247662	199.4	4
0	247663	199.4	1
0	247664	199.4	1
0	247665	199.4	1
0	247666	199.4	1
0	247667	199.4	4
0	247668	199.4	1
0	247669	199.4	1
0	247753	199.45	1
0	247754	199.45	1
0	247755	199.45	4
0	247756	199.45	1
0	247757	199.45	1
0	247798	199.5	1
0	247799	199.5	1
0	247800	199.5	4
0	247801	199.5	1
0	247802	199.5	1
0	247803	199.5	1
0	247804	199.5	1
0	247805	199.5	4
0	247806	199.5	1
0	247807	199.5	1
0	247858	199.55	1
0	247859	199.55	1
0	247860	199.55	4
0	247861	199.55	1
0	247862	199.55	1
0	247913	199.6	1
0	247914	199.6	1
0	247915	199.6	4
0	247916	199.6	1
0	247917	199.6	1
0	247918	199.6	1
0	247919	199.6	1
0	247920	199.6	4
0	247921	199.6	1
0	247922	199.6	1
0	247973	199.65	1
0	247974	199.65	1
0	247975	199.65	4
0	247976	199.65	1
0	247977	199.65	1
0	248018	199.7	1
0	248019	199.7	1
0	248020	199.7	4
0	248021	199.7	1
0	248022	199.7	1
0	248023	199.7	1
0	248024	199.7	1
0	248025	199.7	4
0	248026	199.7	1
0	248027	199.7	1
0	248078	199.75	1
0	248079	199.75	1
0	248080	199.75	4
0	248081	199.75	1
0	248082	199.75	1
0	248123	199.8	1
0	248124	199.8	1
0	248125	199.8	4
0	248126	199.8	1
0	248127	199.8	1
0	248128	199.8	1
0	248129	199.8	1
0	248130	199.8	4
0	248131	199.8	1
0	248132	199.8	1
0	248183	199.85	1
0	248184	199.85	1
0	248185	199.85	4
0	248186	199.85	1
0	248187	199.85	1
0	248245	199.9	1
0	248246	199.9	1
0	248247	199.9	4
0	248248	199.9	1
0	248249	199.9	1
0	248250	199.9	1
0	248251	199.9	1
0	248252	199.9	4
0	248253	199.9	1
0	248254	199.9	1
0	248305	199.95	1
0	248306	199.95	1
0	248307	199.95	4
0	248308	199.95	1
0	248309	199.95	1
0	248350	200	1
0	248351	200	1
0	248352	200	4
0	248353	200	1
0	248354	200	1
0	248355	200	1
0	248356	200	1
0	248357	200	4
0	248358	200	1
0	248359	200	1

