version 2
run D-0-20190928-17:24:42-26489
attr configname D
attr datetime 20190928-17:24:42
attr experiment D
attr inifile SimV2.ini
attr iterationvars ""
attr iterationvarsf ""
attr measurement ""
attr network NetworkTormV2
attr processid 26489
attr repetition 0
attr replication #0
attr resultdir results
attr runnumber 0
attr seedset 0
param **.mobility.traceFile "\"paths/D.movements\""
param **.numNodes 3
param **.wirelessIfc.wirelessRange 40m
param **.bluetoothIfc.wirelessRange 40m
param **.application.usedRNG 1
param **.application.dataGenerationInterval 1s
param **.application.dataSizeInBytes 10
param **.application.ttl 999999s
param **application.destinationAddr "\"Wf:00:00:00:00:02\""
param **application.destinationBTAddr "\"Bt:00:00:00:00:02\""
param **application.nodesThatGen true
param **application.nodesGenMsg "\"0,1\""
param **application.startMultipleMsg false
param **application.numMultipleMsg 100
param **application.hopsListSize 50
param **.application.endGeneratingMsg 90s
param **.numNodes 2
param **.application.usedRNG 1
param **.application.dataGenerationInterval 1ms
param **.application.dataSizeInBytes 10
param **.application.ttl 999999s
param **application.destinationAddr "\"Wf:00:00:00:00:02\""
param **application.destinationBTAddr "\"Bt:00:00:00:00:02\""
param **application.nodesThatGen true
param **application.nodesGenMsg "\"0\""
param **application.startMultipleMsg true
param **application.numMultipleMsg 100
param **application.hopsListSize 50
param **.application.endGeneratingMsg 999999s
param **.routingLayer "\"RoutingLQE\""
param **.routing.maximumCacheSize 5000byte
param **.routing.maximumHopCount 25
param **.routing.useTTL false
param **.routing.waitBFsend 0.5
param **.routing.max_age 999999s
param **.routing.gateway_list "\"Wf:00:00:00:00:02;0|.\""
param **.routing.actual_gateway "\"Wf:00:00:00:00:02\""
param **.neighboring.antiEntropyInterval 500ms
param **.neighboring.maximumRandomBackoffDuration 1s
param **.neighboring.delayPerDataMsg 0.1
param **neighboring.usedRNG 2
param **.neighboring.GWAddr "\"Wf:00:00:00:00:02\""
param **.neighboring.sendWifiFirst true
param **.neighboring.maxLengthGraph 20
param **.neighboring.max_age 999999s
param **.neighboring.max_absent_time 1s
param **.wirelessIfc.wirelessRange 15m
param **.wirelessIfc.neighbourScanInterval 50ms
param **.wirelessIfc.bandwidthBitRate 100000bps
param **.wirelessIfc.wirelessHeaderSize 32byte
param **.wirelessIfc.minSSI -90
param **.wirelessIfc.limitQueueTime 400ms
param **.wirelessIfc.my_limit_rate 0bps
param **.bluetoothIfc.wirelessRange 15m
param **.bluetoothIfc.neighbourScanInterval 100ms
param **.bluetoothIfc.bandwidthBitRate 100000bps
param **.bluetoothIfc.wirelessHeaderSize 16byte
param **.bluetoothIfc.minSSI -90
param **.mobilityType "\"BonnMotionMobility\""
param **.mobility.traceFile "\"paths/Moves2.movements\""
param **.mobility.is3D false
param **.mobility.nodeId -1

vector 0 NetworkTormV2 neighbourhoodSize:vector ETV
attr source neighbourhoodSize
vector 1 NetworkTormV2 deliveryRatio:vector ETV
attr source sum(totalDataBytesReceived)/sum(totalDataBytesReceivableByAllNodes)
vector 2 NetworkTormV2 dataBytesReceivedSum:vector ETV
attr source sum(dataBytesReceived)
vector 3 NetworkTormV2 totalBytesReceivedSum:vector ETV
attr source sum(totalBytesReceived)
0	10	0.05	1
0	11	0.05	2
0	12	0.05	1
0	23	0.1	1
0	25	0.1	2
0	26	0.1	1
0	29	0.1	1
0	30	0.1	2
0	31	0.1	1
0	49	0.15	1
0	50	0.15	2
0	51	0.15	1
0	61	0.2	1
0	62	0.2	2
0	63	0.2	1
0	66	0.2	1
0	67	0.2	2
0	68	0.2	1
0	84	0.25	1
0	85	0.25	2
0	86	0.25	1
0	96	0.3	1
0	97	0.3	2
0	98	0.3	1
0	101	0.3	1
0	102	0.3	2
0	103	0.3	1
0	119	0.35	1
0	120	0.35	2
0	121	0.35	1
0	131	0.4	1
0	132	0.4	2
0	133	0.4	1
0	136	0.4	1
0	137	0.4	2
0	138	0.4	1
0	154	0.45	1
0	155	0.45	2
0	156	0.45	1
0	166	0.5	1
0	167	0.5	2
0	168	0.5	1
0	171	0.5	1
0	172	0.5	2
0	173	0.5	1
0	189	0.55	1
0	190	0.55	2
0	191	0.55	1
0	201	0.6	1
0	202	0.6	2
0	203	0.6	1
0	206	0.6	1
0	207	0.6	2
0	208	0.6	1
0	224	0.65	1
0	225	0.65	2
0	226	0.65	1
0	236	0.7	1
0	237	0.7	2
0	238	0.7	1
0	241	0.7	1
0	242	0.7	2
0	243	0.7	1
0	259	0.75	1
0	260	0.75	2
0	261	0.75	1
0	271	0.8	1
0	272	0.8	2
0	273	0.8	1
0	276	0.8	1
0	277	0.8	2
0	278	0.8	1
0	294	0.85	1
0	295	0.85	2
0	296	0.85	1
0	306	0.9	1
0	307	0.9	2
0	308	0.9	1
0	311	0.9	1
0	312	0.9	2
0	313	0.9	1
0	329	0.95	1
0	330	0.95	2
0	331	0.95	1
0	341	1	1
0	342	1	2
0	343	1	1
0	346	1	1
0	347	1	2
0	348	1	1
0	364	1.05	1
0	365	1.05	2
0	366	1.05	1
0	378	1.1	1
0	379	1.1	2
0	380	1.1	1
0	383	1.1	1
0	384	1.1	2
0	385	1.1	1
0	451	1.15	1
0	452	1.15	2
0	453	1.15	1
0	473	1.2	1
0	474	1.2	2
0	475	1.2	1
0	478	1.2	1
0	479	1.2	2
0	480	1.2	1
0	496	1.25	1
0	497	1.25	2
0	498	1.25	1
0	508	1.3	1
0	509	1.3	2
0	510	1.3	1
0	513	1.3	1
0	514	1.3	2
0	515	1.3	1
0	531	1.35	1
0	532	1.35	2
0	533	1.35	1
0	543	1.4	1
0	544	1.4	2
0	545	1.4	1
0	548	1.4	1
0	549	1.4	2
0	550	1.4	1
0	566	1.45	1
0	567	1.45	2
0	568	1.45	1
0	578	1.5	1
0	579	1.5	2
0	580	1.5	1
0	583	1.5	1
0	584	1.5	2
0	585	1.5	1
0	601	1.55	1
0	602	1.55	2
0	603	1.55	1
0	613	1.6	1
0	614	1.6	2
0	615	1.6	1
0	618	1.6	1
0	619	1.6	2
0	620	1.6	1
0	636	1.65	1
0	637	1.65	2
0	638	1.65	1
0	676	1.7	1
0	677	1.7	2
0	678	1.7	1
0	681	1.7	1
0	682	1.7	2
0	683	1.7	1
0	699	1.75	1
0	700	1.75	2
0	701	1.75	1
0	711	1.8	1
0	712	1.8	2
0	713	1.8	1
0	716	1.8	1
0	717	1.8	2
0	718	1.8	1
0	734	1.85	1
0	735	1.85	2
0	736	1.85	1
0	746	1.9	1
0	747	1.9	2
0	748	1.9	1
0	751	1.9	1
0	752	1.9	2
0	753	1.9	1
0	769	1.95	1
0	770	1.95	2
0	771	1.95	1
0	781	2	1
0	782	2	2
0	783	2	1
0	786	2	1
0	787	2	2
0	788	2	1
0	804	2.05	1
0	805	2.05	2
0	806	2.05	1
0	818	2.1	1
0	819	2.1	2
0	820	2.1	1
0	823	2.1	1
0	824	2.1	2
0	825	2.1	1
0	843	2.15	1
0	844	2.15	2
0	845	2.15	1
0	855	2.2	1
0	856	2.2	2
0	857	2.2	1
0	860	2.2	1
0	861	2.2	2
0	862	2.2	1
0	918	2.25	1
0	919	2.25	2
0	920	2.25	1
0	930	2.3	1
0	931	2.3	2
0	932	2.3	1
0	935	2.3	1
0	936	2.3	2
0	937	2.3	1
0	953	2.35	1
0	954	2.35	2
0	955	2.35	1
0	965	2.4	1
0	966	2.4	2
0	967	2.4	1
0	970	2.4	1
0	971	2.4	2
0	972	2.4	1
0	988	2.45	1
0	989	2.45	2
0	990	2.45	1
0	1000	2.5	1
0	1001	2.5	2
0	1002	2.5	1
0	1005	2.5	1
0	1006	2.5	2
0	1007	2.5	1
0	1023	2.55	1
0	1024	2.55	2
0	1025	2.55	1
0	1035	2.6	1
0	1036	2.6	2
0	1037	2.6	1
0	1040	2.6	1
0	1041	2.6	2
0	1042	2.6	1
0	1058	2.65	1
0	1059	2.65	2
0	1060	2.65	1
0	1070	2.7	1
0	1071	2.7	2
0	1072	2.7	1
0	1075	2.7	1
0	1076	2.7	2
0	1077	2.7	1
0	1110	2.75	1
0	1111	2.75	2
0	1112	2.75	1
0	1150	2.8	1
0	1151	2.8	2
0	1152	2.8	1
0	1155	2.8	1
0	1156	2.8	2
0	1157	2.8	1
0	1173	2.85	1
0	1174	2.85	2
0	1175	2.85	1
0	1185	2.9	1
0	1186	2.9	2
0	1187	2.9	1
0	1190	2.9	1
0	1191	2.9	2
0	1192	2.9	1
0	1208	2.95	1
0	1209	2.95	2
0	1210	2.95	1
0	1220	3	1
0	1221	3	2
0	1222	3	1
0	1225	3	1
0	1226	3	2
0	1227	3	1
0	1243	3.05	1
0	1244	3.05	2
0	1245	3.05	1
0	1257	3.1	1
0	1258	3.1	2
0	1259	3.1	1
0	1262	3.1	1
0	1263	3.1	2
0	1264	3.1	1
0	1282	3.15	1
0	1283	3.15	2
0	1284	3.15	1
0	1294	3.2	1
0	1295	3.2	2
0	1296	3.2	1
0	1299	3.2	1
0	1300	3.2	2
0	1301	3.2	1
0	1317	3.25	1
0	1318	3.25	2
0	1319	3.25	1
0	1362	3.3	1
0	1363	3.3	2
0	1364	3.3	1
0	1367	3.3	1
0	1368	3.3	2
0	1369	3.3	1
0	1430	3.35	1
0	1431	3.35	2
0	1432	3.35	1
0	1442	3.4	1
0	1443	3.4	2
0	1444	3.4	1
0	1447	3.4	1
0	1448	3.4	2
0	1449	3.4	1
0	1479	3.45	1
0	1480	3.45	2
0	1481	3.45	1
0	1491	3.5	1
0	1492	3.5	2
0	1493	3.5	1
0	1496	3.5	1
0	1497	3.5	2
0	1498	3.5	1
0	1514	3.55	1
0	1515	3.55	2
0	1516	3.55	1
0	1526	3.6	1
0	1527	3.6	2
0	1528	3.6	1
0	1531	3.6	1
0	1532	3.6	2
0	1533	3.6	1
0	1549	3.65	1
0	1550	3.65	2
0	1551	3.65	1
0	1561	3.7	1
0	1562	3.7	2
0	1563	3.7	1
0	1566	3.7	1
0	1567	3.7	2
0	1568	3.7	1
0	1584	3.75	1
0	1585	3.75	2
0	1586	3.75	1
0	1596	3.8	1
0	1597	3.8	2
0	1598	3.8	1
0	1601	3.8	1
0	1602	3.8	2
0	1603	3.8	1
0	1622	3.85	1
0	1623	3.85	2
0	1624	3.85	1
0	1687	3.9	1
0	1688	3.9	2
0	1689	3.9	1
0	1692	3.9	1
0	1693	3.9	2
0	1694	3.9	1
0	1730	3.95	1
0	1731	3.95	2
0	1732	3.95	1
0	1742	4	1
0	1743	4	2
0	1744	4	1
0	1747	4	1
0	1748	4	2
0	1749	4	1
0	1765	4.05	1
0	1766	4.05	2
0	1767	4.05	1
0	1779	4.1	1
0	1780	4.1	2
0	1781	4.1	1
0	1784	4.1	1
0	1785	4.1	2
0	1786	4.1	1
0	1804	4.15	1
0	1805	4.15	2
0	1806	4.15	1
0	1816	4.2	1
0	1817	4.2	2
0	1818	4.2	1
0	1821	4.2	1
0	1822	4.2	2
0	1823	4.2	1
0	1839	4.25	1
0	1840	4.25	2
0	1841	4.25	1
0	1851	4.3	1
0	1852	4.3	2
0	1853	4.3	1
0	1856	4.3	1
0	1857	4.3	2
0	1858	4.3	1
0	1874	4.35	1
0	1875	4.35	2
0	1876	4.35	1
0	1886	4.4	1
0	1887	4.4	2
0	1888	4.4	1
0	1891	4.4	1
0	1892	4.4	2
0	1893	4.4	1
0	1933	4.45	1
0	1934	4.45	2
0	1935	4.45	1
0	1945	4.5	1
0	1946	4.5	2
0	1947	4.5	1
0	1950	4.5	1
0	1951	4.5	2
0	1952	4.5	1
0	1968	4.55	1
0	1969	4.55	2
0	1970	4.55	1
0	1980	4.6	1
0	1981	4.6	2
0	1982	4.6	1
0	1985	4.6	1
0	1986	4.6	2
0	1987	4.6	1
0	2003	4.65	1
0	2004	4.65	2
0	2005	4.65	1
0	2015	4.7	1
0	2016	4.7	2
0	2017	4.7	1
0	2020	4.7	1
0	2021	4.7	2
0	2022	4.7	1
0	2038	4.75	1
0	2039	4.75	2
0	2040	4.75	1
0	2050	4.8	1
0	2051	4.8	2
0	2052	4.8	1
0	2055	4.8	1
0	2056	4.8	2
0	2057	4.8	1
0	2073	4.85	1
0	2074	4.85	2
0	2075	4.85	1
0	2085	4.9	1
0	2086	4.9	2
0	2087	4.9	1
0	2090	4.9	1
0	2091	4.9	2
0	2092	4.9	1
0	2108	4.95	1
0	2109	4.95	2
0	2110	4.95	1
0	2165	5	1
0	2166	5	2
0	2167	5	1
0	2170	5	1
0	2171	5	2
0	2172	5	1
0	2198	5.05	1
0	2199	5.05	2
0	2200	5.05	1
0	2212	5.1	1
0	2213	5.1	2
0	2214	5.1	1
0	2217	5.1	1
0	2218	5.1	2
0	2219	5.1	1
0	2237	5.15	1
0	2238	5.15	2
0	2239	5.15	1
0	2249	5.2	1
0	2250	5.2	2
0	2251	5.2	1
0	2254	5.2	1
0	2255	5.2	2
0	2256	5.2	1
0	2272	5.25	1
0	2273	5.25	2
0	2274	5.25	1
0	2284	5.3	1
0	2285	5.3	2
0	2286	5.3	1
0	2289	5.3	1
0	2290	5.3	2
0	2291	5.3	1
0	2307	5.35	1
0	2308	5.35	2
0	2309	5.35	1
0	2319	5.4	1
0	2320	5.4	2
0	2321	5.4	1
0	2324	5.4	1
0	2325	5.4	2
0	2326	5.4	1
0	2366	5.45	1
0	2367	5.45	2
0	2368	5.45	1
0	2395	5.5	1
0	2396	5.5	2
0	2397	5.5	1
0	2400	5.5	1
0	2401	5.5	2
0	2402	5.5	1
0	2446	5.55	1
0	2447	5.55	2
0	2448	5.55	1
0	2472	5.6	1
0	2473	5.6	2
0	2474	5.6	1
0	2477	5.6	1
0	2478	5.6	2
0	2479	5.6	1
0	2495	5.65	1
0	2496	5.65	2
0	2497	5.65	1
0	2507	5.7	1
0	2508	5.7	2
0	2509	5.7	1
0	2512	5.7	1
0	2513	5.7	2
0	2514	5.7	1
0	2530	5.75	1
0	2531	5.75	2
0	2532	5.75	1
0	2542	5.8	1
0	2543	5.8	2
0	2544	5.8	1
0	2547	5.8	1
0	2548	5.8	2
0	2549	5.8	1
0	2565	5.85	1
0	2566	5.85	2
0	2567	5.85	1
0	2577	5.9	1
0	2578	5.9	2
0	2579	5.9	1
0	2582	5.9	1
0	2583	5.9	2
0	2584	5.9	1
0	2600	5.95	1
0	2601	5.95	2
0	2602	5.95	1
0	2615	6	1
0	2616	6	2
0	2617	6	1
0	2620	6	1
0	2621	6	2
0	2622	6	1
0	2638	6.05	1
0	2639	6.05	2
0	2640	6.05	1
0	2695	6.1	1
0	2696	6.1	2
0	2697	6.1	1
0	2700	6.1	1
0	2701	6.1	2
0	2702	6.1	1
0	2730	6.15	1
0	2731	6.15	2
0	2732	6.15	1
0	2742	6.2	1
0	2743	6.2	2
0	2744	6.2	1
0	2747	6.2	1
0	2748	6.2	2
0	2749	6.2	1
0	2765	6.25	1
0	2766	6.25	2
0	2767	6.25	1
0	2777	6.3	1
0	2778	6.3	2
0	2779	6.3	1
0	2782	6.3	1
0	2783	6.3	2
0	2784	6.3	1
0	2800	6.35	1
0	2801	6.35	2
0	2802	6.35	1
0	2812	6.4	1
0	2813	6.4	2
0	2814	6.4	1
0	2817	6.4	1
0	2818	6.4	2
0	2819	6.4	1
0	2835	6.45	1
0	2836	6.45	2
0	2837	6.45	1
0	2847	6.5	1
0	2848	6.5	2
0	2849	6.5	1
0	2852	6.5	1
0	2853	6.5	2
0	2854	6.5	1
0	2870	6.55	1
0	2871	6.55	2
0	2872	6.55	1
0	2882	6.6	1
0	2883	6.6	2
0	2884	6.6	1
0	2887	6.6	1
0	2888	6.6	2
0	2889	6.6	1
0	2919	6.65	1
0	2920	6.65	2
0	2921	6.65	1
0	2931	6.7	1
0	2932	6.7	2
0	2933	6.7	1
0	2936	6.7	1
0	2937	6.7	2
0	2938	6.7	1
0	2954	6.75	1
0	2955	6.75	2
0	2956	6.75	1
0	2992	6.8	1
0	2993	6.8	2
0	2994	6.8	1
0	2997	6.8	1
0	2998	6.8	2
0	2999	6.8	1
0	3015	6.85	1
0	3016	6.85	2
0	3017	6.85	1
0	3027	6.9	1
0	3028	6.9	2
0	3029	6.9	1
0	3032	6.9	1
0	3033	6.9	2
0	3034	6.9	1
0	3050	6.95	1
0	3051	6.95	2
0	3052	6.95	1
0	3062	7	1
0	3063	7	2
0	3064	7	1
0	3067	7	1
0	3068	7	2
0	3069	7	1
0	3085	7.05	1
0	3086	7.05	2
0	3087	7.05	1
0	3099	7.1	1
0	3100	7.1	2
0	3101	7.1	1
0	3104	7.1	1
0	3105	7.1	2
0	3106	7.1	1
0	3124	7.15	1
0	3125	7.15	2
0	3126	7.15	1
0	3160	7.2	1
0	3161	7.2	2
0	3162	7.2	1
0	3165	7.2	1
0	3166	7.2	2
0	3167	7.2	1
0	3183	7.25	1
0	3184	7.25	2
0	3185	7.25	1
0	3195	7.3	1
0	3196	7.3	2
0	3197	7.3	1
0	3200	7.3	1
0	3201	7.3	2
0	3202	7.3	1
0	3245	7.35	1
0	3246	7.35	2
0	3247	7.35	1
0	3257	7.4	1
0	3258	7.4	2
0	3259	7.4	1
0	3262	7.4	1
0	3263	7.4	2
0	3264	7.4	1
0	3280	7.45	1
0	3281	7.45	2
0	3282	7.45	1
0	3292	7.5	1
0	3293	7.5	2
0	3294	7.5	1
0	3297	7.5	1
0	3298	7.5	2
0	3299	7.5	1
0	3315	7.55	1
0	3316	7.55	2
0	3317	7.55	1
0	3327	7.6	1
0	3328	7.6	2
0	3329	7.6	1
0	3332	7.6	1
0	3333	7.6	2
0	3334	7.6	1
0	3350	7.65	1
0	3351	7.65	2
0	3352	7.65	1
0	3362	7.7	1
0	3363	7.7	2
0	3364	7.7	1
0	3367	7.7	1
0	3368	7.7	2
0	3369	7.7	1
0	3409	7.75	1
0	3410	7.75	2
0	3411	7.75	1
0	3421	7.8	1
0	3422	7.8	2
0	3423	7.8	1
0	3426	7.8	1
0	3427	7.8	2
0	3428	7.8	1
0	3444	7.85	1
0	3445	7.85	2
0	3446	7.85	1
0	3462	7.9	1
0	3463	7.9	2
0	3464	7.9	1
0	3467	7.9	1
0	3468	7.9	2
0	3469	7.9	1
0	3485	7.95	1
0	3486	7.95	2
0	3487	7.95	1
0	3497	8	1
0	3498	8	2
0	3499	8	1
0	3502	8	1
0	3503	8	2
0	3504	8	1
0	3520	8.05	1
0	3521	8.05	2
0	3522	8.05	1
0	3534	8.1	1
0	3535	8.1	2
0	3536	8.1	1
0	3539	8.1	1
0	3540	8.1	2
0	3541	8.1	1
0	3559	8.15	1
0	3560	8.15	2
0	3561	8.15	1
0	3571	8.2	1
0	3572	8.2	2
0	3573	8.2	1
0	3576	8.2	1
0	3577	8.2	2
0	3578	8.2	1
0	3594	8.25	1
0	3595	8.25	2
0	3596	8.25	1
0	3606	8.3	1
0	3607	8.3	2
0	3608	8.3	1
0	3611	8.3	1
0	3612	8.3	2
0	3613	8.3	1
0	3629	8.35	1
0	3630	8.35	2
0	3631	8.35	1
0	3641	8.4	1
0	3642	8.4	2
0	3643	8.4	1
0	3646	8.4	1
0	3647	8.4	2
0	3648	8.4	1
0	3664	8.45	1
0	3665	8.45	2
0	3666	8.45	1
0	3676	8.5	1
0	3677	8.5	2
0	3678	8.5	1
0	3681	8.5	1
0	3682	8.5	2
0	3683	8.5	1
0	3699	8.55	1
0	3700	8.55	2
0	3701	8.55	1
0	3711	8.6	1
0	3712	8.6	2
0	3713	8.6	1
0	3716	8.6	1
0	3717	8.6	2
0	3718	8.6	1
0	3734	8.65	1
0	3735	8.65	2
0	3736	8.65	1
0	3746	8.7	1
0	3747	8.7	2
0	3748	8.7	1
0	3751	8.7	1
0	3752	8.7	2
0	3753	8.7	1
0	3769	8.75	1
0	3770	8.75	2
0	3771	8.75	1
0	3781	8.8	1
0	3782	8.8	2
0	3783	8.8	1
0	3786	8.8	1
0	3787	8.8	2
0	3788	8.8	1
0	3804	8.85	1
0	3805	8.85	2
0	3806	8.85	1
0	3816	8.9	1
0	3817	8.9	2
0	3818	8.9	1
0	3821	8.9	1
0	3822	8.9	2
0	3823	8.9	1
0	3839	8.95	1
0	3840	8.95	2
0	3841	8.95	1
0	3851	9	1
0	3852	9	2
0	3853	9	1
0	3856	9	1
0	3857	9	2
0	3858	9	1
0	3874	9.05	1
0	3875	9.05	2
0	3876	9.05	1
0	3888	9.1	1
0	3889	9.1	2
0	3890	9.1	1
0	3893	9.1	1
0	3894	9.1	2
0	3895	9.1	1
0	3913	9.15	1
0	3914	9.15	2
0	3915	9.15	1
0	3925	9.2	1
0	3926	9.2	2
0	3927	9.2	1
0	3930	9.2	1
0	3931	9.2	2
0	3932	9.2	1
0	3948	9.25	1
0	3949	9.25	2
0	3950	9.25	1
0	3960	9.3	1
0	3961	9.3	2
0	3962	9.3	1
0	3965	9.3	1
0	3966	9.3	2
0	3967	9.3	1
0	3989	9.35	1
0	3990	9.35	2
0	3991	9.35	1
0	4001	9.4	1
0	4002	9.4	2
0	4003	9.4	1
0	4006	9.4	1
0	4007	9.4	2
0	4008	9.4	1
0	4024	9.45	1
0	4025	9.45	2
0	4026	9.45	1
0	4078	9.5	1
0	4079	9.5	1
0	4080	9.5	0
0	4083	9.5	1
0	4084	9.5	1
0	4085	9.5	0
0	4117	9.55	1
0	4118	9.55	1
0	4119	9.55	0
0	4137	9.6	1
0	4138	9.6	1
0	4139	9.6	0
0	4142	9.6	1
0	4143	9.6	1
0	4144	9.6	0
0	4158	9.65	1
0	4159	9.65	1
0	4160	9.65	0
0	4170	9.7	1
0	4171	9.7	1
0	4172	9.7	0
0	4175	9.7	1
0	4176	9.7	1
0	4177	9.7	0
0	4191	9.75	1
0	4192	9.75	1
0	4193	9.75	0
0	4203	9.8	1
0	4204	9.8	1
0	4205	9.8	0
0	4208	9.8	1
0	4209	9.8	1
0	4210	9.8	0
0	4224	9.85	1
0	4225	9.85	1
0	4226	9.85	0
0	4250	9.9	1
0	4251	9.9	1
0	4252	9.9	0
0	4255	9.9	1
0	4256	9.9	1
0	4257	9.9	0
0	4271	9.95	1
0	4272	9.95	1
0	4273	9.95	0
0	4283	10	1
0	4284	10	1
0	4285	10	0
0	4288	10	1
0	4289	10	1
0	4290	10	0
0	4318	10.05	1
0	4319	10.05	1
0	4320	10.05	0
0	4332	10.1	1
0	4333	10.1	1
0	4334	10.1	0
0	4337	10.1	1
0	4338	10.1	1
0	4339	10.1	0
0	4355	10.15	1
0	4356	10.15	1
0	4357	10.15	0
0	4367	10.2	1
0	4368	10.2	1
0	4369	10.2	0
0	4372	10.2	1
0	4373	10.2	1
0	4374	10.2	0
0	4388	10.25	1
0	4389	10.25	1
0	4390	10.25	0
0	4400	10.3	1
0	4401	10.3	1
0	4402	10.3	0
0	4405	10.3	1
0	4406	10.3	1
0	4407	10.3	0
0	4421	10.35	1
0	4422	10.35	1
0	4423	10.35	0
0	4433	10.4	1
0	4434	10.4	1
0	4435	10.4	0
0	4438	10.4	1
0	4439	10.4	1
0	4440	10.4	0
0	4457	10.45	1
0	4458	10.45	1
0	4459	10.45	0
0	4469	10.5	1
0	4470	10.5	1
0	4471	10.5	0
0	4474	10.5	1
0	4475	10.5	1
0	4476	10.5	0
0	4490	10.55	1
0	4491	10.55	1
0	4492	10.55	0
0	4502	10.6	1
0	4503	10.6	1
0	4504	10.6	0
0	4507	10.6	1
0	4508	10.6	1
0	4509	10.6	0
0	4523	10.65	1
0	4524	10.65	1
0	4525	10.65	0
0	4535	10.7	1
0	4536	10.7	1
0	4537	10.7	0
0	4540	10.7	1
0	4541	10.7	1
0	4542	10.7	0
0	4556	10.75	1
0	4557	10.75	1
0	4558	10.75	0
0	4568	10.8	1
0	4569	10.8	1
0	4570	10.8	0
0	4573	10.8	1
0	4574	10.8	1
0	4575	10.8	0
0	4589	10.85	1
0	4590	10.85	1
0	4591	10.85	0
0	4601	10.9	1
0	4602	10.9	1
0	4603	10.9	0
0	4606	10.9	1
0	4607	10.9	1
0	4608	10.9	0
0	4622	10.95	1
0	4623	10.95	1
0	4624	10.95	0
0	4634	11	1
0	4635	11	1
0	4636	11	0
0	4639	11	1
0	4640	11	1
0	4641	11	0
0	4655	11.05	1
0	4656	11.05	1
0	4657	11.05	0
0	4669	11.1	1
0	4670	11.1	1
0	4671	11.1	0
0	4674	11.1	1
0	4675	11.1	1
0	4676	11.1	0
0	4692	11.15	1
0	4693	11.15	1
0	4694	11.15	0
0	4704	11.2	1
0	4705	11.2	1
0	4706	11.2	0
0	4709	11.2	1
0	4710	11.2	1
0	4711	11.2	0
0	4725	11.25	1
0	4726	11.25	1
0	4727	11.25	0
0	4737	11.3	1
0	4738	11.3	1
0	4739	11.3	0
0	4742	11.3	1
0	4743	11.3	1
0	4744	11.3	0
0	4758	11.35	1
0	4759	11.35	1
0	4760	11.35	0
0	4770	11.4	1
0	4771	11.4	1
0	4772	11.4	0
0	4775	11.4	1
0	4776	11.4	1
0	4777	11.4	0
0	4791	11.45	1
0	4792	11.45	1
0	4793	11.45	0
0	4803	11.5	1
0	4804	11.5	1
0	4805	11.5	0
0	4808	11.5	1
0	4809	11.5	1
0	4810	11.5	0
0	4824	11.55	1
0	4825	11.55	1
0	4826	11.55	0
0	4836	11.6	1
0	4837	11.6	1
0	4838	11.6	0
0	4841	11.6	1
0	4842	11.6	1
0	4843	11.6	0
0	4871	11.65	1
0	4872	11.65	1
0	4873	11.65	0
0	4883	11.7	1
0	4884	11.7	1
0	4885	11.7	0
0	4888	11.7	1
0	4889	11.7	1
0	4890	11.7	0
0	4904	11.75	1
0	4905	11.75	1
0	4906	11.75	0
0	4919	11.8	1
0	4920	11.8	1
0	4921	11.8	0
0	4924	11.8	1
0	4925	11.8	1
0	4926	11.8	0
0	4940	11.85	1
0	4941	11.85	1
0	4942	11.85	0
0	4952	11.9	1
0	4953	11.9	1
0	4954	11.9	0
0	4957	11.9	1
0	4958	11.9	1
0	4959	11.9	0
0	4973	11.95	1
0	4974	11.95	1
0	4975	11.95	0
0	4985	12	1
0	4986	12	1
0	4987	12	0
0	4990	12	1
0	4991	12	1
0	4992	12	0
0	5006	12.05	1
0	5007	12.05	1
0	5008	12.05	0
0	5020	12.1	1
0	5021	12.1	1
0	5022	12.1	0
0	5025	12.1	1
0	5026	12.1	1
0	5027	12.1	0
0	5043	12.15	1
0	5044	12.15	1
0	5045	12.15	0
0	5055	12.2	1
0	5056	12.2	1
0	5057	12.2	0
0	5060	12.2	1
0	5061	12.2	1
0	5062	12.2	0
0	5076	12.25	1
0	5077	12.25	1
0	5078	12.25	0
0	5088	12.3	1
0	5089	12.3	1
0	5090	12.3	0
0	5093	12.3	1
0	5094	12.3	1
0	5095	12.3	0
0	5109	12.35	1
0	5110	12.35	1
0	5111	12.35	0
0	5121	12.4	1
0	5122	12.4	1
0	5123	12.4	0
0	5126	12.4	1
0	5127	12.4	1
0	5128	12.4	0
0	5142	12.45	1
0	5143	12.45	1
0	5144	12.45	0
0	5154	12.5	1
0	5155	12.5	1
0	5156	12.5	0
0	5159	12.5	1
0	5160	12.5	1
0	5161	12.5	0
0	5175	12.55	1
0	5176	12.55	1
0	5177	12.55	0
0	5187	12.6	1
0	5188	12.6	1
0	5189	12.6	0
0	5192	12.6	1
0	5193	12.6	1
0	5194	12.6	0
0	5208	12.65	1
0	5209	12.65	1
0	5210	12.65	0
0	5220	12.7	1
0	5221	12.7	1
0	5222	12.7	0
0	5225	12.7	1
0	5226	12.7	1
0	5227	12.7	0
0	5241	12.75	1
0	5242	12.75	1
0	5243	12.75	0
0	5253	12.8	1
0	5254	12.8	1
0	5255	12.8	0
0	5258	12.8	1
0	5259	12.8	1
0	5260	12.8	0
0	5274	12.85	1
0	5275	12.85	1
0	5276	12.85	0
0	5286	12.9	1
0	5287	12.9	1
0	5288	12.9	0
0	5291	12.9	1
0	5292	12.9	1
0	5293	12.9	0
0	5307	12.95	1
0	5308	12.95	1
0	5309	12.95	0
0	5319	13	1
0	5320	13	1
0	5321	13	0
0	5324	13	1
0	5325	13	1
0	5326	13	0
0	5340	13.05	1
0	5341	13.05	1
0	5342	13.05	0
0	5354	13.1	1
0	5355	13.1	1
0	5356	13.1	0
0	5359	13.1	1
0	5360	13.1	1
0	5361	13.1	0
0	5377	13.15	1
0	5378	13.15	1
0	5379	13.15	0
0	5389	13.2	1
0	5390	13.2	1
0	5391	13.2	0
0	5394	13.2	1
0	5395	13.2	1
0	5396	13.2	0
0	5420	13.25	1
0	5421	13.25	1
0	5422	13.25	0
0	5432	13.3	1
0	5433	13.3	1
0	5434	13.3	0
0	5437	13.3	1
0	5438	13.3	1
0	5439	13.3	0
0	5453	13.35	1
0	5454	13.35	1
0	5455	13.35	0
0	5468	13.4	1
0	5469	13.4	1
0	5470	13.4	0
0	5473	13.4	1
0	5474	13.4	1
0	5475	13.4	0
0	5489	13.45	1
0	5490	13.45	1
0	5491	13.45	0
0	5501	13.5	1
0	5502	13.5	1
0	5503	13.5	0
0	5506	13.5	1
0	5507	13.5	1
0	5508	13.5	0
0	5522	13.55	1
0	5523	13.55	1
0	5524	13.55	0
0	5534	13.6	1
0	5535	13.6	1
0	5536	13.6	0
0	5539	13.6	1
0	5540	13.6	1
0	5541	13.6	0
0	5555	13.65	1
0	5556	13.65	1
0	5557	13.65	0
0	5567	13.7	1
0	5568	13.7	1
0	5569	13.7	0
0	5572	13.7	1
0	5573	13.7	1
0	5574	13.7	0
0	5588	13.75	1
0	5589	13.75	1
0	5590	13.75	0
0	5600	13.8	1
0	5601	13.8	1
0	5602	13.8	0
0	5605	13.8	1
0	5606	13.8	1
0	5607	13.8	0
0	5621	13.85	1
0	5622	13.85	1
0	5623	13.85	0
0	5633	13.9	1
0	5634	13.9	1
0	5635	13.9	0
0	5638	13.9	1
0	5639	13.9	1
0	5640	13.9	0
0	5654	13.95	1
0	5655	13.95	1
0	5656	13.95	0
0	5666	14	1
0	5667	14	1
0	5668	14	0
0	5671	14	1
0	5672	14	1
0	5673	14	0
0	5687	14.05	1
0	5688	14.05	1
0	5689	14.05	0
0	5701	14.1	1
0	5702	14.1	1
0	5703	14.1	0
0	5706	14.1	1
0	5707	14.1	1
0	5708	14.1	0
0	5724	14.15	1
0	5725	14.15	1
0	5726	14.15	0
0	5736	14.2	1
0	5737	14.2	1
0	5738	14.2	0
0	5741	14.2	1
0	5742	14.2	1
0	5743	14.2	0
0	5757	14.25	1
0	5758	14.25	1
0	5759	14.25	0
0	5769	14.3	1
0	5770	14.3	1
0	5771	14.3	0
0	5774	14.3	1
0	5775	14.3	1
0	5776	14.3	0
0	5790	14.35	1
0	5791	14.35	1
0	5792	14.35	0
0	5802	14.4	1
0	5803	14.4	1
0	5804	14.4	0
0	5807	14.4	1
0	5808	14.4	1
0	5809	14.4	0
0	5823	14.45	1
0	5824	14.45	1
0	5825	14.45	0
0	5835	14.5	1
0	5836	14.5	1
0	5837	14.5	0
0	5840	14.5	1
0	5841	14.5	1
0	5842	14.5	0
0	5856	14.55	1
0	5857	14.55	1
0	5858	14.55	0
0	5868	14.6	1
0	5869	14.6	1
0	5870	14.6	0
0	5873	14.6	1
0	5874	14.6	1
0	5875	14.6	0
0	5889	14.65	1
0	5890	14.65	1
0	5891	14.65	0
0	5901	14.7	1
0	5902	14.7	1
0	5903	14.7	0
0	5906	14.7	1
0	5907	14.7	1
0	5908	14.7	0
0	5922	14.75	1
0	5923	14.75	1
0	5924	14.75	0
0	5934	14.8	1
0	5935	14.8	1
0	5936	14.8	0
0	5939	14.8	1
0	5940	14.8	1
0	5941	14.8	0
0	5958	14.85	1
0	5959	14.85	1
0	5960	14.85	0
0	5970	14.9	1
0	5971	14.9	1
0	5972	14.9	0
0	5975	14.9	1
0	5976	14.9	1
0	5977	14.9	0
0	5991	14.95	1
0	5992	14.95	1
0	5993	14.95	0
0	6017	15	1
0	6018	15	1
0	6019	15	0
0	6022	15	1
0	6023	15	1
0	6024	15	0
0	6038	15.05	1
0	6039	15.05	1
0	6040	15.05	0
0	6052	15.1	1
0	6053	15.1	1
0	6054	15.1	0
0	6057	15.1	1
0	6058	15.1	1
0	6059	15.1	0
0	6075	15.15	1
0	6076	15.15	1
0	6077	15.15	0
0	6087	15.2	1
0	6088	15.2	1
0	6089	15.2	0
0	6092	15.2	1
0	6093	15.2	1
0	6094	15.2	0
0	6108	15.25	1
0	6109	15.25	1
0	6110	15.25	0
0	6120	15.3	1
0	6121	15.3	1
0	6122	15.3	0
0	6125	15.3	1
0	6126	15.3	1
0	6127	15.3	0
0	6141	15.35	1
0	6142	15.35	1
0	6143	15.35	0
0	6167	15.4	1
0	6168	15.4	1
0	6169	15.4	0
0	6172	15.4	1
0	6173	15.4	1
0	6174	15.4	0
0	6188	15.45	1
0	6189	15.45	1
0	6190	15.45	0
0	6200	15.5	1
0	6201	15.5	1
0	6202	15.5	0
0	6205	15.5	1
0	6206	15.5	1
0	6207	15.5	0
0	6235	15.55	1
0	6236	15.55	1
0	6237	15.55	0
0	6247	15.6	1
0	6248	15.6	1
0	6249	15.6	0
0	6252	15.6	1
0	6253	15.6	1
0	6254	15.6	0
0	6268	15.65	1
0	6269	15.65	1
0	6270	15.65	0
0	6280	15.7	1
0	6281	15.7	1
0	6282	15.7	0
0	6285	15.7	1
0	6286	15.7	1
0	6287	15.7	0
0	6301	15.75	1
0	6302	15.75	1
0	6303	15.75	0
0	6313	15.8	1
0	6314	15.8	1
0	6315	15.8	0
0	6318	15.8	1
0	6319	15.8	1
0	6320	15.8	0
0	6334	15.85	1
0	6335	15.85	1
0	6336	15.85	0
0	6346	15.9	1
0	6347	15.9	1
0	6348	15.9	0
0	6351	15.9	1
0	6352	15.9	1
0	6353	15.9	0
0	6381	15.95	1
0	6382	15.95	1
0	6383	15.95	0
0	6393	16	1
0	6394	16	1
0	6395	16	0
0	6398	16	1
0	6399	16	1
0	6400	16	0
0	6414	16.05	1
0	6415	16.05	1
0	6416	16.05	0
0	6431	16.1	1
0	6432	16.1	1
0	6433	16.1	0
0	6436	16.1	1
0	6437	16.1	1
0	6438	16.1	0
0	6454	16.15	1
0	6455	16.15	1
0	6456	16.15	0
0	6466	16.2	1
0	6467	16.2	1
0	6468	16.2	0
0	6471	16.2	1
0	6472	16.2	1
0	6473	16.2	0
0	6487	16.25	1
0	6488	16.25	1
0	6489	16.25	0
0	6499	16.3	1
0	6500	16.3	1
0	6501	16.3	0
0	6504	16.3	1
0	6505	16.3	1
0	6506	16.3	0
0	6520	16.35	1
0	6521	16.35	1
0	6522	16.35	0
0	6532	16.4	1
0	6533	16.4	1
0	6534	16.4	0
0	6537	16.4	1
0	6538	16.4	1
0	6539	16.4	0
0	6553	16.45	1
0	6554	16.45	1
0	6555	16.45	0
0	6565	16.5	1
0	6566	16.5	1
0	6567	16.5	0
0	6570	16.5	1
0	6571	16.5	1
0	6572	16.5	0
0	6586	16.55	1
0	6587	16.55	1
0	6588	16.55	0
0	6598	16.6	1
0	6599	16.6	1
0	6600	16.6	0
0	6603	16.6	1
0	6604	16.6	1
0	6605	16.6	0
0	6619	16.65	1
0	6620	16.65	1
0	6621	16.65	0
0	6631	16.7	1
0	6632	16.7	1
0	6633	16.7	0
0	6636	16.7	1
0	6637	16.7	1
0	6638	16.7	0
0	6652	16.75	1
0	6653	16.75	1
0	6654	16.75	0
0	6664	16.8	1
0	6665	16.8	1
0	6666	16.8	0
0	6669	16.8	1
0	6670	16.8	1
0	6671	16.8	0
0	6685	16.85	1
0	6686	16.85	1
0	6687	16.85	0
0	6697	16.9	1
0	6698	16.9	1
0	6699	16.9	0
0	6702	16.9	1
0	6703	16.9	1
0	6704	16.9	0
0	6718	16.95	1
0	6719	16.95	1
0	6720	16.95	0
0	6730	17	1
0	6731	17	1
0	6732	17	0
0	6735	17	1
0	6736	17	1
0	6737	17	0
0	6751	17.05	1
0	6752	17.05	1
0	6753	17.05	0
0	6765	17.1	1
0	6766	17.1	1
0	6767	17.1	0
0	6770	17.1	1
0	6771	17.1	1
0	6772	17.1	0
0	6788	17.15	1
0	6789	17.15	1
0	6790	17.15	0
0	6800	17.2	1
0	6801	17.2	1
0	6802	17.2	0
0	6805	17.2	1
0	6806	17.2	1
0	6807	17.2	0
0	6821	17.25	1
0	6822	17.25	1
0	6823	17.25	0
0	6833	17.3	1
0	6834	17.3	1
0	6835	17.3	0
0	6838	17.3	1
0	6839	17.3	1
0	6840	17.3	0
0	6854	17.35	1
0	6855	17.35	1
0	6856	17.35	0
0	6866	17.4	1
0	6867	17.4	1
0	6868	17.4	0
0	6871	17.4	1
0	6872	17.4	1
0	6873	17.4	0
0	6887	17.45	1
0	6888	17.45	1
0	6889	17.45	0
0	6899	17.5	1
0	6900	17.5	1
0	6901	17.5	0
0	6904	17.5	1
0	6905	17.5	1
0	6906	17.5	0
0	6923	17.55	1
0	6924	17.55	1
0	6925	17.55	0
0	6935	17.6	1
0	6936	17.6	1
0	6937	17.6	0
0	6940	17.6	1
0	6941	17.6	1
0	6942	17.6	0
0	6956	17.65	1
0	6957	17.65	1
0	6958	17.65	0
0	6971	17.7	1
0	6972	17.7	1
0	6973	17.7	0
0	6976	17.7	1
0	6977	17.7	1
0	6978	17.7	0
0	6992	17.75	1
0	6993	17.75	1
0	6994	17.75	0
0	7004	17.8	1
0	7005	17.8	1
0	7006	17.8	0
0	7009	17.8	1
0	7010	17.8	1
0	7011	17.8	0
0	7025	17.85	1
0	7026	17.85	1
0	7027	17.85	0
0	7037	17.9	1
0	7038	17.9	1
0	7039	17.9	0
0	7042	17.9	1
0	7043	17.9	1
0	7044	17.9	0
0	7058	17.95	1
0	7059	17.95	1
0	7060	17.95	0
0	7070	18	1
0	7071	18	1
0	7072	18	0
0	7075	18	1
0	7076	18	1
0	7077	18	0
0	7091	18.05	1
0	7092	18.05	1
0	7093	18.05	0
0	7105	18.1	1
0	7106	18.1	1
0	7107	18.1	0
0	7110	18.1	1
0	7111	18.1	1
0	7112	18.1	0
0	7128	18.15	1
0	7129	18.15	1
0	7130	18.15	0
0	7140	18.2	1
0	7141	18.2	1
0	7142	18.2	0
0	7145	18.2	1
0	7146	18.2	1
0	7147	18.2	0
0	7161	18.25	1
0	7162	18.25	1
0	7163	18.25	0
0	7173	18.3	1
0	7174	18.3	1
0	7175	18.3	0
0	7178	18.3	1
0	7179	18.3	1
0	7180	18.3	0
0	7194	18.35	1
0	7195	18.35	1
0	7196	18.35	0
0	7206	18.4	1
0	7207	18.4	1
0	7208	18.4	0
0	7211	18.4	1
0	7212	18.4	1
0	7213	18.4	0
0	7227	18.45	1
0	7228	18.45	1
0	7229	18.45	0
0	7239	18.5	1
0	7240	18.5	1
0	7241	18.5	0
0	7244	18.5	1
0	7245	18.5	1
0	7246	18.5	0
0	7260	18.55	1
0	7261	18.55	1
0	7262	18.55	0
0	7272	18.6	1
0	7273	18.6	1
0	7274	18.6	0
0	7277	18.6	1
0	7278	18.6	1
0	7279	18.6	0
0	7293	18.65	1
0	7294	18.65	1
0	7295	18.65	0
0	7305	18.7	1
0	7306	18.7	1
0	7307	18.7	0
0	7310	18.7	1
0	7311	18.7	1
0	7312	18.7	0
0	7326	18.75	1
0	7327	18.75	1
0	7328	18.75	0
0	7338	18.8	1
0	7339	18.8	1
0	7340	18.8	0
0	7343	18.8	1
0	7344	18.8	1
0	7345	18.8	0
0	7359	18.85	1
0	7360	18.85	1
0	7361	18.85	0
0	7371	18.9	1
0	7372	18.9	1
0	7373	18.9	0
0	7376	18.9	1
0	7377	18.9	1
0	7378	18.9	0
0	7392	18.95	1
0	7393	18.95	1
0	7394	18.95	0
0	7404	19	1
0	7405	19	1
0	7406	19	0
0	7409	19	1
0	7410	19	1
0	7411	19	0
0	7425	19.05	1
0	7426	19.05	1
0	7427	19.05	0
0	7439	19.1	1
0	7440	19.1	1
0	7441	19.1	0
0	7444	19.1	1
0	7445	19.1	1
0	7446	19.1	0
0	7465	19.15	1
0	7466	19.15	1
0	7467	19.15	0
0	7477	19.2	1
0	7478	19.2	1
0	7479	19.2	0
0	7482	19.2	1
0	7483	19.2	1
0	7484	19.2	0
0	7498	19.25	1
0	7499	19.25	1
0	7500	19.25	0
0	7513	19.3	1
0	7514	19.3	1
0	7515	19.3	0
0	7518	19.3	1
0	7519	19.3	1
0	7520	19.3	0
0	7534	19.35	1
0	7535	19.35	1
0	7536	19.35	0
0	7546	19.4	1
0	7547	19.4	1
0	7548	19.4	0
0	7551	19.4	1
0	7552	19.4	1
0	7553	19.4	0
0	7567	19.45	1
0	7568	19.45	1
0	7569	19.45	0
0	7579	19.5	1
0	7580	19.5	1
0	7581	19.5	0
0	7584	19.5	1
0	7585	19.5	1
0	7586	19.5	0
0	7600	19.55	1
0	7601	19.55	1
0	7602	19.55	0
0	7612	19.6	1
0	7613	19.6	1
0	7614	19.6	0
0	7617	19.6	1
0	7618	19.6	1
0	7619	19.6	0
0	7633	19.65	1
0	7634	19.65	1
0	7635	19.65	0
0	7645	19.7	1
0	7646	19.7	1
0	7647	19.7	0
0	7650	19.7	1
0	7651	19.7	1
0	7652	19.7	0
0	7666	19.75	1
0	7667	19.75	1
0	7668	19.75	0
0	7678	19.8	1
0	7679	19.8	1
0	7680	19.8	0
0	7683	19.8	1
0	7684	19.8	1
0	7685	19.8	0
0	7699	19.85	1
0	7700	19.85	1
0	7701	19.85	0
0	7711	19.9	1
0	7712	19.9	1
0	7713	19.9	0
0	7716	19.9	1
0	7717	19.9	1
0	7718	19.9	0
0	7732	19.95	1
0	7733	19.95	1
0	7734	19.95	0
0	7744	20	1
0	7745	20	1
0	7746	20	0
0	7749	20	1
0	7750	20	1
0	7751	20	0
0	7765	20.05	1
0	7766	20.05	1
0	7767	20.05	0
0	7779	20.1	1
0	7780	20.1	1
0	7781	20.1	0
0	7783	20.1	1
0	7784	20.1	1
0	7785	20.1	0
0	7801	20.15	1
0	7802	20.15	1
0	7803	20.15	0
0	7813	20.2	1
0	7814	20.2	1
0	7815	20.2	0
0	7817	20.2	1
0	7818	20.2	1
0	7819	20.2	0
0	7833	20.25	1
0	7834	20.25	1
0	7835	20.25	0
0	7845	20.3	1
0	7846	20.3	1
0	7847	20.3	0
0	7849	20.3	1
0	7850	20.3	1
0	7851	20.3	0
0	7865	20.35	1
0	7866	20.35	1
0	7867	20.35	0
0	7877	20.4	1
0	7878	20.4	1
0	7879	20.4	0
0	7881	20.4	1
0	7882	20.4	1
0	7883	20.4	0
0	7897	20.45	1
0	7898	20.45	1
0	7899	20.45	0
0	7909	20.5	1
0	7910	20.5	1
0	7911	20.5	0
0	7913	20.5	1
0	7914	20.5	1
0	7915	20.5	0
0	7929	20.55	1
0	7930	20.55	1
0	7931	20.55	0
0	7941	20.6	1
0	7942	20.6	1
0	7943	20.6	0
0	7945	20.6	1
0	7946	20.6	1
0	7947	20.6	0
0	7961	20.65	1
0	7962	20.65	1
0	7963	20.65	0
0	7973	20.7	1
0	7974	20.7	1
0	7975	20.7	0
0	7977	20.7	1
0	7978	20.7	1
0	7979	20.7	0
0	8003	20.75	1
0	8004	20.75	1
0	8005	20.75	0
0	8015	20.8	1
0	8016	20.8	1
0	8017	20.8	0
0	8019	20.8	1
0	8020	20.8	1
0	8021	20.8	0
0	8035	20.85	0
0	8036	20.85	0
0	8037	20.85	0
0	8047	20.9	0
0	8048	20.9	0
0	8049	20.9	0
0	8051	20.9	0
0	8052	20.9	0
0	8053	20.9	0
0	8063	20.95	0
0	8064	20.95	0
0	8065	20.95	0
0	8075	21	0
0	8076	21	0
0	8077	21	0
0	8079	21	0
0	8080	21	0
0	8081	21	0
0	8091	21.05	0
0	8092	21.05	0
0	8093	21.05	0
0	8105	21.1	0
0	8106	21.1	0
0	8107	21.1	0
0	8109	21.1	0
0	8110	21.1	0
0	8111	21.1	0
0	8123	21.15	0
0	8124	21.15	0
0	8125	21.15	0
0	8135	21.2	0
0	8136	21.2	0
0	8137	21.2	0
0	8139	21.2	0
0	8140	21.2	0
0	8141	21.2	0
0	8151	21.25	0
0	8152	21.25	0
0	8153	21.25	0
0	8163	21.3	0
0	8164	21.3	0
0	8165	21.3	0
0	8167	21.3	0
0	8168	21.3	0
0	8169	21.3	0
0	8179	21.35	0
0	8180	21.35	0
0	8181	21.35	0
0	8191	21.4	0
0	8192	21.4	0
0	8193	21.4	0
0	8195	21.4	0
0	8196	21.4	0
0	8197	21.4	0
0	8207	21.45	0
0	8208	21.45	0
0	8209	21.45	0
0	8219	21.5	0
0	8220	21.5	0
0	8221	21.5	0
0	8223	21.5	0
0	8224	21.5	0
0	8225	21.5	0
0	8235	21.55	0
0	8236	21.55	0
0	8237	21.55	0
0	8247	21.6	0
0	8248	21.6	0
0	8249	21.6	0
0	8251	21.6	0
0	8252	21.6	0
0	8253	21.6	0
0	8263	21.65	0
0	8264	21.65	0
0	8265	21.65	0
0	8275	21.7	0
0	8276	21.7	0
0	8277	21.7	0
0	8279	21.7	0
0	8280	21.7	0
0	8281	21.7	0
0	8291	21.75	0
0	8292	21.75	0
0	8293	21.75	0
0	8303	21.8	0
0	8304	21.8	0
0	8305	21.8	0
0	8307	21.8	0
0	8308	21.8	0
0	8309	21.8	0
0	8319	21.85	0
0	8320	21.85	0
0	8321	21.85	0
0	8331	21.9	0
0	8332	21.9	0
0	8333	21.9	0
0	8335	21.9	0
0	8336	21.9	0
0	8337	21.9	0
0	8347	21.95	0
0	8348	21.95	0
0	8349	21.95	0
0	8359	22	0
0	8360	22	0
0	8361	22	0
0	8363	22	0
0	8364	22	0
0	8365	22	0
0	8375	22.05	0
0	8376	22.05	0
0	8377	22.05	0
0	8389	22.1	0
0	8390	22.1	0
0	8391	22.1	0
0	8393	22.1	0
0	8394	22.1	0
0	8395	22.1	0
0	8407	22.15	0
0	8408	22.15	0
0	8409	22.15	0
0	8419	22.2	0
0	8420	22.2	0
0	8421	22.2	0
0	8423	22.2	0
0	8424	22.2	0
0	8425	22.2	0
0	8435	22.25	0
0	8436	22.25	0
0	8437	22.25	0
0	8447	22.3	0
0	8448	22.3	0
0	8449	22.3	0
0	8451	22.3	0
0	8452	22.3	0
0	8453	22.3	0
0	8463	22.35	0
0	8464	22.35	0
0	8465	22.35	0
0	8475	22.4	0
0	8476	22.4	0
0	8477	22.4	0
0	8479	22.4	0
0	8480	22.4	0
0	8481	22.4	0
0	8491	22.45	0
0	8492	22.45	0
0	8493	22.45	0
0	8503	22.5	0
0	8504	22.5	0
0	8505	22.5	0
0	8507	22.5	0
0	8508	22.5	0
0	8509	22.5	0
0	8519	22.55	0
0	8520	22.55	0
0	8521	22.55	0
0	8531	22.6	0
0	8532	22.6	0
0	8533	22.6	0
0	8535	22.6	0
0	8536	22.6	0
0	8537	22.6	0
0	8547	22.65	0
0	8548	22.65	0
0	8549	22.65	0
0	8559	22.7	0
0	8560	22.7	0
0	8561	22.7	0
0	8563	22.7	0
0	8564	22.7	0
0	8565	22.7	0
0	8575	22.75	0
0	8576	22.75	0
0	8577	22.75	0
0	8587	22.8	0
0	8588	22.8	0
0	8589	22.8	0
0	8591	22.8	0
0	8592	22.8	0
0	8593	22.8	0
0	8603	22.85	0
0	8604	22.85	0
0	8605	22.85	0
0	8615	22.9	0
0	8616	22.9	0
0	8617	22.9	0
0	8619	22.9	0
0	8620	22.9	0
0	8621	22.9	0
0	8631	22.95	0
0	8632	22.95	0
0	8633	22.95	0
0	8643	23	0
0	8644	23	0
0	8645	23	0
0	8647	23	0
0	8648	23	0
0	8649	23	0
0	8659	23.05	0
0	8660	23.05	0
0	8661	23.05	0
0	8673	23.1	0
0	8674	23.1	0
0	8675	23.1	0
0	8677	23.1	0
0	8678	23.1	0
0	8679	23.1	0
0	8691	23.15	0
0	8692	23.15	0
0	8693	23.15	0
0	8703	23.2	0
0	8704	23.2	0
0	8705	23.2	0
0	8707	23.2	0
0	8708	23.2	0
0	8709	23.2	0
0	8719	23.25	0
0	8720	23.25	0
0	8721	23.25	0
0	8731	23.3	0
0	8732	23.3	0
0	8733	23.3	0
0	8735	23.3	0
0	8736	23.3	0
0	8737	23.3	0
0	8747	23.35	0
0	8748	23.35	0
0	8749	23.35	0
0	8759	23.4	0
0	8760	23.4	0
0	8761	23.4	0
0	8763	23.4	0
0	8764	23.4	0
0	8765	23.4	0
0	8775	23.45	0
0	8776	23.45	0
0	8777	23.45	0
0	8787	23.5	0
0	8788	23.5	0
0	8789	23.5	0
0	8791	23.5	0
0	8792	23.5	0
0	8793	23.5	0
0	8803	23.55	0
0	8804	23.55	0
0	8805	23.55	0
0	8815	23.6	0
0	8816	23.6	0
0	8817	23.6	0
0	8819	23.6	0
0	8820	23.6	0
0	8821	23.6	0
0	8831	23.65	0
0	8832	23.65	0
0	8833	23.65	0
0	8843	23.7	0
0	8844	23.7	0
0	8845	23.7	0
0	8847	23.7	0
0	8848	23.7	0
0	8849	23.7	0
0	8859	23.75	0
0	8860	23.75	0
0	8861	23.75	0
0	8871	23.8	0
0	8872	23.8	0
0	8873	23.8	0
0	8875	23.8	0
0	8876	23.8	0
0	8877	23.8	0
0	8887	23.85	0
0	8888	23.85	0
0	8889	23.85	0
0	8899	23.9	0
0	8900	23.9	0
0	8901	23.9	0
0	8903	23.9	0
0	8904	23.9	0
0	8905	23.9	0
0	8915	23.95	0
0	8916	23.95	0
0	8917	23.95	0
0	8927	24	0
0	8928	24	0
0	8929	24	0
0	8931	24	0
0	8932	24	0
0	8933	24	0
0	8943	24.05	0
0	8944	24.05	0
0	8945	24.05	0
0	8957	24.1	0
0	8958	24.1	0
0	8959	24.1	0
0	8961	24.1	0
0	8962	24.1	0
0	8963	24.1	0
0	8975	24.15	0
0	8976	24.15	0
0	8977	24.15	0
0	8987	24.2	0
0	8988	24.2	0
0	8989	24.2	0
0	8991	24.2	0
0	8992	24.2	0
0	8993	24.2	0
0	9003	24.25	0
0	9004	24.25	0
0	9005	24.25	0
0	9015	24.3	0
0	9016	24.3	0
0	9017	24.3	0
0	9019	24.3	0
0	9020	24.3	0
0	9021	24.3	0
0	9031	24.35	0
0	9032	24.35	0
0	9033	24.35	0
0	9043	24.4	0
0	9044	24.4	0
0	9045	24.4	0
0	9047	24.4	0
0	9048	24.4	0
0	9049	24.4	0
0	9059	24.45	0
0	9060	24.45	0
0	9061	24.45	0
0	9071	24.5	0
0	9072	24.5	0
0	9073	24.5	0
0	9075	24.5	0
0	9076	24.5	0
0	9077	24.5	0
0	9087	24.55	0
0	9088	24.55	0
0	9089	24.55	0
0	9099	24.6	0
0	9100	24.6	0
0	9101	24.6	0
0	9103	24.6	0
0	9104	24.6	0
0	9105	24.6	0
0	9115	24.65	0
0	9116	24.65	0
0	9117	24.65	0
0	9127	24.7	0
0	9128	24.7	0
0	9129	24.7	0
0	9131	24.7	0
0	9132	24.7	0
0	9133	24.7	0
0	9143	24.75	0
0	9144	24.75	0
0	9145	24.75	0
0	9155	24.8	0
0	9156	24.8	0
0	9157	24.8	0
0	9159	24.8	0
0	9160	24.8	0
0	9161	24.8	0
0	9171	24.85	0
0	9172	24.85	0
0	9173	24.85	0
0	9183	24.9	0
0	9184	24.9	0
0	9185	24.9	0
0	9187	24.9	0
0	9188	24.9	0
0	9189	24.9	0
0	9199	24.95	0
0	9200	24.95	0
0	9201	24.95	0
0	9211	25	0
0	9212	25	0
0	9213	25	0
0	9215	25	0
0	9216	25	0
0	9217	25	0
0	9227	25.05	0
0	9228	25.05	0
0	9229	25.05	0
0	9241	25.1	0
0	9242	25.1	0
0	9243	25.1	0
0	9245	25.1	0
0	9246	25.1	0
0	9247	25.1	0
0	9259	25.15	0
0	9260	25.15	0
0	9261	25.15	0
0	9271	25.2	0
0	9272	25.2	0
0	9273	25.2	0
0	9275	25.2	0
0	9276	25.2	0
0	9277	25.2	0
0	9287	25.25	0
0	9288	25.25	0
0	9289	25.25	0
0	9299	25.3	0
0	9300	25.3	0
0	9301	25.3	0
0	9303	25.3	0
0	9304	25.3	0
0	9305	25.3	0
0	9315	25.35	0
0	9316	25.35	0
0	9317	25.35	0
0	9327	25.4	0
0	9328	25.4	0
0	9329	25.4	0
0	9331	25.4	0
0	9332	25.4	0
0	9333	25.4	0
0	9343	25.45	0
0	9344	25.45	0
0	9345	25.45	0
0	9355	25.5	0
0	9356	25.5	0
0	9357	25.5	0
0	9359	25.5	0
0	9360	25.5	0
0	9361	25.5	0
0	9371	25.55	0
0	9372	25.55	0
0	9373	25.55	0
0	9383	25.6	0
0	9384	25.6	0
0	9385	25.6	0
0	9387	25.6	0
0	9388	25.6	0
0	9389	25.6	0
0	9399	25.65	0
0	9400	25.65	0
0	9401	25.65	0
0	9411	25.7	0
0	9412	25.7	0
0	9413	25.7	0
0	9415	25.7	0
0	9416	25.7	0
0	9417	25.7	0
0	9427	25.75	0
0	9428	25.75	0
0	9429	25.75	0
0	9439	25.8	0
0	9440	25.8	0
0	9441	25.8	0
0	9443	25.8	0
0	9444	25.8	0
0	9445	25.8	0
0	9455	25.85	0
0	9456	25.85	0
0	9457	25.85	0
0	9467	25.9	0
0	9468	25.9	0
0	9469	25.9	0
0	9471	25.9	0
0	9472	25.9	0
0	9473	25.9	0
0	9483	25.95	0
0	9484	25.95	0
0	9485	25.95	0
0	9495	26	0
0	9496	26	0
0	9497	26	0
0	9499	26	0
0	9500	26	0
0	9501	26	0
0	9511	26.05	0
0	9512	26.05	0
0	9513	26.05	0
0	9525	26.1	0
0	9526	26.1	0
0	9527	26.1	0
0	9529	26.1	0
0	9530	26.1	0
0	9531	26.1	0
0	9543	26.15	0
0	9544	26.15	0
0	9545	26.15	0
0	9555	26.2	0
0	9556	26.2	0
0	9557	26.2	0
0	9559	26.2	0
0	9560	26.2	0
0	9561	26.2	0
0	9571	26.25	0
0	9572	26.25	0
0	9573	26.25	0
0	9583	26.3	0
0	9584	26.3	0
0	9585	26.3	0
0	9587	26.3	0
0	9588	26.3	0
0	9589	26.3	0
0	9599	26.35	0
0	9600	26.35	0
0	9601	26.35	0
0	9611	26.4	0
0	9612	26.4	0
0	9613	26.4	0
0	9615	26.4	0
0	9616	26.4	0
0	9617	26.4	0
0	9627	26.45	0
0	9628	26.45	0
0	9629	26.45	0
0	9639	26.5	0
0	9640	26.5	0
0	9641	26.5	0
0	9643	26.5	0
0	9644	26.5	0
0	9645	26.5	0
0	9655	26.55	0
0	9656	26.55	0
0	9657	26.55	0
0	9667	26.6	0
0	9668	26.6	0
0	9669	26.6	0
0	9671	26.6	0
0	9672	26.6	0
0	9673	26.6	0
0	9683	26.65	0
0	9684	26.65	0
0	9685	26.65	0
0	9695	26.7	0
0	9696	26.7	0
0	9697	26.7	0
0	9699	26.7	0
0	9700	26.7	0
0	9701	26.7	0
0	9711	26.75	0
0	9712	26.75	0
0	9713	26.75	0
0	9723	26.8	0
0	9724	26.8	0
0	9725	26.8	0
0	9727	26.8	0
0	9728	26.8	0
0	9729	26.8	0
0	9739	26.85	0
0	9740	26.85	0
0	9741	26.85	0
0	9751	26.9	0
0	9752	26.9	0
0	9753	26.9	0
0	9755	26.9	0
0	9756	26.9	0
0	9757	26.9	0
0	9767	26.95	0
0	9768	26.95	0
0	9769	26.95	0
0	9779	27	0
0	9780	27	0
0	9781	27	0
0	9783	27	0
0	9784	27	0
0	9785	27	0
0	9795	27.05	0
0	9796	27.05	0
0	9797	27.05	0
0	9809	27.1	0
0	9810	27.1	0
0	9811	27.1	0
0	9813	27.1	0
0	9814	27.1	0
0	9815	27.1	0
0	9827	27.15	0
0	9828	27.15	0
0	9829	27.15	0
0	9839	27.2	0
0	9840	27.2	0
0	9841	27.2	0
0	9843	27.2	0
0	9844	27.2	0
0	9845	27.2	0
0	9855	27.25	0
0	9856	27.25	0
0	9857	27.25	0
0	9867	27.3	0
0	9868	27.3	0
0	9869	27.3	0
0	9871	27.3	0
0	9872	27.3	0
0	9873	27.3	0
0	9883	27.35	0
0	9884	27.35	0
0	9885	27.35	0
0	9895	27.4	0
0	9896	27.4	0
0	9897	27.4	0
0	9899	27.4	0
0	9900	27.4	0
0	9901	27.4	0
0	9911	27.45	0
0	9912	27.45	0
0	9913	27.45	0
0	9923	27.5	0
0	9924	27.5	0
0	9925	27.5	0
0	9927	27.5	0
0	9928	27.5	0
0	9929	27.5	0
0	9939	27.55	0
0	9940	27.55	0
0	9941	27.55	0
0	9951	27.6	0
0	9952	27.6	0
0	9953	27.6	0
0	9955	27.6	0
0	9956	27.6	0
0	9957	27.6	0
0	9967	27.65	0
0	9968	27.65	0
0	9969	27.65	0
0	9979	27.7	0
0	9980	27.7	0
0	9981	27.7	0
0	9983	27.7	0
0	9984	27.7	0
0	9985	27.7	0
0	9995	27.75	0
0	9996	27.75	0
0	9997	27.75	0
0	10007	27.8	0
0	10008	27.8	0
0	10009	27.8	0
0	10011	27.8	0
0	10012	27.8	0
0	10013	27.8	0
0	10023	27.85	0
0	10024	27.85	0
0	10025	27.85	0
0	10035	27.9	0
0	10036	27.9	0
0	10037	27.9	0
0	10039	27.9	0
0	10040	27.9	0
0	10041	27.9	0
0	10051	27.95	0
0	10052	27.95	0
0	10053	27.95	0
0	10063	28	0
0	10064	28	0
0	10065	28	0
0	10067	28	0
0	10068	28	0
0	10069	28	0
0	10079	28.05	0
0	10080	28.05	0
0	10081	28.05	0
0	10093	28.1	0
0	10094	28.1	0
0	10095	28.1	0
0	10097	28.1	0
0	10098	28.1	0
0	10099	28.1	0
0	10111	28.15	0
0	10112	28.15	0
0	10113	28.15	0
0	10123	28.2	0
0	10124	28.2	0
0	10125	28.2	0
0	10127	28.2	0
0	10128	28.2	0
0	10129	28.2	0
0	10139	28.25	0
0	10140	28.25	0
0	10141	28.25	0
0	10151	28.3	0
0	10152	28.3	0
0	10153	28.3	0
0	10155	28.3	0
0	10156	28.3	0
0	10157	28.3	0
0	10167	28.35	0
0	10168	28.35	0
0	10169	28.35	0
0	10179	28.4	0
0	10180	28.4	0
0	10181	28.4	0
0	10183	28.4	0
0	10184	28.4	0
0	10185	28.4	0
0	10195	28.45	0
0	10196	28.45	0
0	10197	28.45	0
0	10207	28.5	0
0	10208	28.5	0
0	10209	28.5	0
0	10211	28.5	0
0	10212	28.5	0
0	10213	28.5	0
0	10223	28.55	0
0	10224	28.55	0
0	10225	28.55	0
0	10235	28.6	0
0	10236	28.6	0
0	10237	28.6	0
0	10239	28.6	0
0	10240	28.6	0
0	10241	28.6	0
0	10251	28.65	0
0	10252	28.65	0
0	10253	28.65	0
0	10263	28.7	0
0	10264	28.7	0
0	10265	28.7	0
0	10267	28.7	0
0	10268	28.7	0
0	10269	28.7	0
0	10279	28.75	0
0	10280	28.75	0
0	10281	28.75	0
0	10291	28.8	0
0	10292	28.8	0
0	10293	28.8	0
0	10295	28.8	0
0	10296	28.8	0
0	10297	28.8	0
0	10307	28.85	0
0	10308	28.85	0
0	10309	28.85	0
0	10319	28.9	0
0	10320	28.9	0
0	10321	28.9	0
0	10323	28.9	0
0	10324	28.9	0
0	10325	28.9	0
0	10335	28.95	0
0	10336	28.95	0
0	10337	28.95	0
0	10347	29	0
0	10348	29	0
0	10349	29	0
0	10351	29	0
0	10352	29	0
0	10353	29	0
0	10363	29.05	0
0	10364	29.05	0
0	10365	29.05	0
0	10377	29.1	0
0	10378	29.1	0
0	10379	29.1	0
0	10381	29.1	0
0	10382	29.1	0
0	10383	29.1	0
0	10395	29.15	0
0	10396	29.15	0
0	10397	29.15	0
0	10407	29.2	0
0	10408	29.2	0
0	10409	29.2	0
0	10411	29.2	0
0	10412	29.2	0
0	10413	29.2	0
0	10423	29.25	0
0	10424	29.25	0
0	10425	29.25	0
0	10435	29.3	0
0	10436	29.3	0
0	10437	29.3	0
0	10439	29.3	0
0	10440	29.3	0
0	10441	29.3	0
0	10451	29.35	0
0	10452	29.35	0
0	10453	29.35	0
0	10463	29.4	0
0	10464	29.4	0
0	10465	29.4	0
0	10467	29.4	0
0	10468	29.4	0
0	10469	29.4	0
0	10479	29.45	0
0	10480	29.45	0
0	10481	29.45	0
0	10491	29.5	0
0	10492	29.5	0
0	10493	29.5	0
0	10495	29.5	0
0	10496	29.5	0
0	10497	29.5	0
0	10507	29.55	0
0	10508	29.55	0
0	10509	29.55	0
0	10519	29.6	0
0	10520	29.6	0
0	10521	29.6	0
0	10523	29.6	0
0	10524	29.6	0
0	10525	29.6	0
0	10535	29.65	0
0	10536	29.65	0
0	10537	29.65	0
0	10547	29.7	0
0	10548	29.7	0
0	10549	29.7	0
0	10551	29.7	0
0	10552	29.7	0
0	10553	29.7	0
0	10563	29.75	0
0	10564	29.75	0
0	10565	29.75	0
0	10575	29.8	0
0	10576	29.8	0
0	10577	29.8	0
0	10579	29.8	0
0	10580	29.8	0
0	10581	29.8	0
0	10591	29.85	0
0	10592	29.85	0
0	10593	29.85	0
0	10603	29.9	0
0	10604	29.9	0
0	10605	29.9	0
0	10607	29.9	0
0	10608	29.9	0
0	10609	29.9	0
0	10619	29.95	0
0	10620	29.95	0
0	10621	29.95	0
0	10631	30	0
0	10632	30	0
0	10633	30	0
0	10635	30	0
0	10636	30	0
0	10637	30	0
0	10647	30.05	0
0	10648	30.05	0
0	10649	30.05	0
0	10661	30.1	0
0	10662	30.1	0
0	10663	30.1	0
0	10665	30.1	0
0	10666	30.1	0
0	10667	30.1	0
0	10679	30.15	0
0	10680	30.15	0
0	10681	30.15	0
0	10691	30.2	0
0	10692	30.2	0
0	10693	30.2	0
0	10695	30.2	0
0	10696	30.2	0
0	10697	30.2	0
0	10707	30.25	0
0	10708	30.25	0
0	10709	30.25	0
0	10719	30.3	0
0	10720	30.3	0
0	10721	30.3	0
0	10723	30.3	0
0	10724	30.3	0
0	10725	30.3	0
0	10735	30.35	0
0	10736	30.35	0
0	10737	30.35	0
0	10747	30.4	0
0	10748	30.4	0
0	10749	30.4	0
0	10751	30.4	0
0	10752	30.4	0
0	10753	30.4	0
0	10763	30.45	0
0	10764	30.45	0
0	10765	30.45	0
0	10775	30.5	0
0	10776	30.5	0
0	10777	30.5	0
0	10779	30.5	0
0	10780	30.5	0
0	10781	30.5	0
0	10791	30.55	0
0	10792	30.55	0
0	10793	30.55	0
0	10803	30.6	0
0	10804	30.6	0
0	10805	30.6	0
0	10807	30.6	0
0	10808	30.6	0
0	10809	30.6	0
0	10819	30.65	0
0	10820	30.65	0
0	10821	30.65	0
0	10831	30.7	0
0	10832	30.7	0
0	10833	30.7	0
0	10835	30.7	0
0	10836	30.7	0
0	10837	30.7	0
0	10847	30.75	0
0	10848	30.75	0
0	10849	30.75	0
0	10859	30.8	0
0	10860	30.8	0
0	10861	30.8	0
0	10863	30.8	0
0	10864	30.8	0
0	10865	30.8	0
0	10875	30.85	0
0	10876	30.85	0
0	10877	30.85	0
0	10887	30.9	0
0	10888	30.9	0
0	10889	30.9	0
0	10891	30.9	0
0	10892	30.9	0
0	10893	30.9	0
0	10903	30.95	0
0	10904	30.95	0
0	10905	30.95	0
0	10915	31	0
0	10916	31	0
0	10917	31	0
0	10919	31	0
0	10920	31	0
0	10921	31	0
0	10931	31.05	0
0	10932	31.05	0
0	10933	31.05	0
0	10945	31.1	0
0	10946	31.1	0
0	10947	31.1	0
0	10949	31.1	0
0	10950	31.1	0
0	10951	31.1	0
0	10963	31.15	0
0	10964	31.15	0
0	10965	31.15	0
0	10975	31.2	0
0	10976	31.2	0
0	10977	31.2	0
0	10979	31.2	0
0	10980	31.2	0
0	10981	31.2	0
0	10991	31.25	0
0	10992	31.25	0
0	10993	31.25	0
0	11003	31.3	0
0	11004	31.3	0
0	11005	31.3	0
0	11007	31.3	0
0	11008	31.3	0
0	11009	31.3	0
0	11019	31.35	0
0	11020	31.35	0
0	11021	31.35	0
0	11031	31.4	0
0	11032	31.4	0
0	11033	31.4	0
0	11035	31.4	0
0	11036	31.4	0
0	11037	31.4	0
0	11047	31.45	0
0	11048	31.45	0
0	11049	31.45	0
0	11059	31.5	0
0	11060	31.5	0
0	11061	31.5	0
0	11063	31.5	0
0	11064	31.5	0
0	11065	31.5	0
0	11075	31.55	0
0	11076	31.55	0
0	11077	31.55	0
0	11087	31.6	0
0	11088	31.6	0
0	11089	31.6	0
0	11091	31.6	0
0	11092	31.6	0
0	11093	31.6	0
0	11103	31.65	0
0	11104	31.65	0
0	11105	31.65	0
0	11115	31.7	0
0	11116	31.7	0
0	11117	31.7	0
0	11119	31.7	0
0	11120	31.7	0
0	11121	31.7	0
0	11131	31.75	0
0	11132	31.75	0
0	11133	31.75	0
0	11143	31.8	0
0	11144	31.8	0
0	11145	31.8	0
0	11147	31.8	0
0	11148	31.8	0
0	11149	31.8	0
0	11159	31.85	0
0	11160	31.85	0
0	11161	31.85	0
0	11171	31.9	0
0	11172	31.9	0
0	11173	31.9	0
0	11175	31.9	0
0	11176	31.9	0
0	11177	31.9	0
0	11187	31.95	0
0	11188	31.95	0
0	11189	31.95	0
0	11199	32	0
0	11200	32	0
0	11201	32	0
0	11203	32	0
0	11204	32	0
0	11205	32	0
0	11215	32.05	0
0	11216	32.05	0
0	11217	32.05	0
0	11229	32.1	0
0	11230	32.1	0
0	11231	32.1	0
0	11233	32.1	0
0	11234	32.1	0
0	11235	32.1	0
0	11247	32.15	0
0	11248	32.15	0
0	11249	32.15	0
0	11259	32.2	0
0	11260	32.2	0
0	11261	32.2	0
0	11263	32.2	0
0	11264	32.2	0
0	11265	32.2	0
0	11275	32.25	0
0	11276	32.25	0
0	11277	32.25	0
0	11287	32.3	0
0	11288	32.3	0
0	11289	32.3	0
0	11291	32.3	0
0	11292	32.3	0
0	11293	32.3	0
0	11303	32.35	0
0	11304	32.35	0
0	11305	32.35	0
0	11315	32.4	0
0	11316	32.4	0
0	11317	32.4	0
0	11319	32.4	0
0	11320	32.4	0
0	11321	32.4	0
0	11331	32.45	0
0	11332	32.45	0
0	11333	32.45	0
0	11343	32.5	0
0	11344	32.5	0
0	11345	32.5	0
0	11347	32.5	0
0	11348	32.5	0
0	11349	32.5	0
0	11359	32.55	0
0	11360	32.55	0
0	11361	32.55	0
0	11371	32.6	0
0	11372	32.6	0
0	11373	32.6	0
0	11375	32.6	0
0	11376	32.6	0
0	11377	32.6	0
0	11387	32.65	0
0	11388	32.65	0
0	11389	32.65	0
0	11399	32.7	0
0	11400	32.7	0
0	11401	32.7	0
0	11403	32.7	0
0	11404	32.7	0
0	11405	32.7	0
0	11415	32.75	0
0	11416	32.75	0
0	11417	32.75	0
0	11427	32.8	0
0	11428	32.8	0
0	11429	32.8	0
0	11431	32.8	0
0	11432	32.8	0
0	11433	32.8	0
0	11443	32.85	0
0	11444	32.85	0
0	11445	32.85	0
0	11455	32.9	0
0	11456	32.9	0
0	11457	32.9	0
0	11459	32.9	0
0	11460	32.9	0
0	11461	32.9	0
0	11471	32.95	0
0	11472	32.95	0
0	11473	32.95	0
0	11483	33	0
0	11484	33	0
0	11485	33	0
0	11487	33	0
0	11488	33	0
0	11489	33	0
0	11499	33.05	0
0	11500	33.05	0
0	11501	33.05	0
0	11513	33.1	0
0	11514	33.1	0
0	11515	33.1	0
0	11517	33.1	0
0	11518	33.1	0
0	11519	33.1	0
0	11531	33.15	0
0	11532	33.15	0
0	11533	33.15	0
0	11543	33.2	0
0	11544	33.2	0
0	11545	33.2	0
0	11547	33.2	0
0	11548	33.2	0
0	11549	33.2	0
0	11559	33.25	0
0	11560	33.25	0
0	11561	33.25	0
0	11571	33.3	0
0	11572	33.3	0
0	11573	33.3	0
0	11575	33.3	0
0	11576	33.3	0
0	11577	33.3	0
0	11587	33.35	0
0	11588	33.35	0
0	11589	33.35	0
0	11599	33.4	0
0	11600	33.4	0
0	11601	33.4	0
0	11603	33.4	0
0	11604	33.4	0
0	11605	33.4	0
0	11615	33.45	0
0	11616	33.45	0
0	11617	33.45	0
0	11627	33.5	0
0	11628	33.5	0
0	11629	33.5	0
0	11631	33.5	0
0	11632	33.5	0
0	11633	33.5	0
0	11643	33.55	0
0	11644	33.55	0
0	11645	33.55	0
0	11655	33.6	0
0	11656	33.6	0
0	11657	33.6	0
0	11659	33.6	0
0	11660	33.6	0
0	11661	33.6	0
0	11671	33.65	0
0	11672	33.65	0
0	11673	33.65	0
0	11683	33.7	0
0	11684	33.7	0
0	11685	33.7	0
0	11687	33.7	0
0	11688	33.7	0
0	11689	33.7	0
0	11699	33.75	0
0	11700	33.75	0
0	11701	33.75	0
0	11711	33.8	0
0	11712	33.8	0
0	11713	33.8	0
0	11715	33.8	0
0	11716	33.8	0
0	11717	33.8	0
0	11727	33.85	0
0	11728	33.85	0
0	11729	33.85	0
0	11739	33.9	0
0	11740	33.9	0
0	11741	33.9	0
0	11743	33.9	0
0	11744	33.9	0
0	11745	33.9	0
0	11755	33.95	0
0	11756	33.95	0
0	11757	33.95	0
0	11767	34	0
0	11768	34	0
0	11769	34	0
0	11771	34	0
0	11772	34	0
0	11773	34	0
0	11783	34.05	0
0	11784	34.05	0
0	11785	34.05	0
0	11797	34.1	0
0	11798	34.1	0
0	11799	34.1	0
0	11801	34.1	0
0	11802	34.1	0
0	11803	34.1	0
0	11815	34.15	0
0	11816	34.15	0
0	11817	34.15	0
0	11827	34.2	0
0	11828	34.2	0
0	11829	34.2	0
0	11831	34.2	0
0	11832	34.2	0
0	11833	34.2	0
0	11843	34.25	0
0	11844	34.25	0
0	11845	34.25	0
0	11855	34.3	0
0	11856	34.3	0
0	11857	34.3	0
0	11859	34.3	0
0	11860	34.3	0
0	11861	34.3	0
0	11871	34.35	0
0	11872	34.35	0
0	11873	34.35	0
0	11883	34.4	0
0	11884	34.4	0
0	11885	34.4	0
0	11887	34.4	0
0	11888	34.4	0
0	11889	34.4	0
0	11899	34.45	0
0	11900	34.45	0
0	11901	34.45	0
0	11911	34.5	0
0	11912	34.5	0
0	11913	34.5	0
0	11915	34.5	0
0	11916	34.5	0
0	11917	34.5	0
0	11927	34.55	0
0	11928	34.55	0
0	11929	34.55	0
0	11939	34.6	0
0	11940	34.6	0
0	11941	34.6	0
0	11943	34.6	0
0	11944	34.6	0
0	11945	34.6	0
0	11955	34.65	0
0	11956	34.65	0
0	11957	34.65	0
0	11967	34.7	0
0	11968	34.7	0
0	11969	34.7	0
0	11971	34.7	0
0	11972	34.7	0
0	11973	34.7	0
0	11983	34.75	0
0	11984	34.75	0
0	11985	34.75	0
0	11995	34.8	0
0	11996	34.8	0
0	11997	34.8	0
0	11999	34.8	0
0	12000	34.8	0
0	12001	34.8	0
0	12011	34.85	0
0	12012	34.85	0
0	12013	34.85	0
0	12023	34.9	0
0	12024	34.9	0
0	12025	34.9	0
0	12027	34.9	0
0	12028	34.9	0
0	12029	34.9	0
0	12039	34.95	0
0	12040	34.95	0
0	12041	34.95	0
0	12051	35	0
0	12052	35	0
0	12053	35	0
0	12055	35	0
0	12056	35	0
0	12057	35	0
0	12067	35.05	0
0	12068	35.05	0
0	12069	35.05	0
0	12081	35.1	0
0	12082	35.1	0
0	12083	35.1	0
0	12085	35.1	0
0	12086	35.1	0
0	12087	35.1	0
0	12099	35.15	0
0	12100	35.15	0
0	12101	35.15	0
0	12111	35.2	0
0	12112	35.2	0
0	12113	35.2	0
0	12115	35.2	0
0	12116	35.2	0
0	12117	35.2	0
0	12127	35.25	0
0	12128	35.25	0
0	12129	35.25	0
0	12139	35.3	0
0	12140	35.3	0
0	12141	35.3	0
0	12143	35.3	0
0	12144	35.3	0
0	12145	35.3	0
0	12155	35.35	0
0	12156	35.35	0
0	12157	35.35	0
0	12167	35.4	0
0	12168	35.4	0
0	12169	35.4	0
0	12171	35.4	0
0	12172	35.4	0
0	12173	35.4	0
0	12183	35.45	0
0	12184	35.45	0
0	12185	35.45	0
0	12195	35.5	0
0	12196	35.5	0
0	12197	35.5	0
0	12199	35.5	0
0	12200	35.5	0
0	12201	35.5	0
0	12211	35.55	0
0	12212	35.55	0
0	12213	35.55	0
0	12223	35.6	0
0	12224	35.6	0
0	12225	35.6	0
0	12227	35.6	0
0	12228	35.6	0
0	12229	35.6	0
0	12239	35.65	0
0	12240	35.65	0
0	12241	35.65	0
0	12251	35.7	0
0	12252	35.7	0
0	12253	35.7	0
0	12255	35.7	0
0	12256	35.7	0
0	12257	35.7	0
0	12267	35.75	0
0	12268	35.75	0
0	12269	35.75	0
0	12279	35.8	0
0	12280	35.8	0
0	12281	35.8	0
0	12283	35.8	0
0	12284	35.8	0
0	12285	35.8	0
0	12295	35.85	0
0	12296	35.85	0
0	12297	35.85	0
0	12307	35.9	0
0	12308	35.9	0
0	12309	35.9	0
0	12311	35.9	0
0	12312	35.9	0
0	12313	35.9	0
0	12323	35.95	0
0	12324	35.95	0
0	12325	35.95	0
0	12335	36	0
0	12336	36	0
0	12337	36	0
0	12339	36	0
0	12340	36	0
0	12341	36	0
0	12351	36.05	0
0	12352	36.05	0
0	12353	36.05	0
0	12365	36.1	0
0	12366	36.1	0
0	12367	36.1	0
0	12369	36.1	0
0	12370	36.1	0
0	12371	36.1	0
0	12383	36.15	0
0	12384	36.15	0
0	12385	36.15	0
0	12395	36.2	0
0	12396	36.2	0
0	12397	36.2	0
0	12399	36.2	0
0	12400	36.2	0
0	12401	36.2	0
0	12411	36.25	0
0	12412	36.25	0
0	12413	36.25	0
0	12423	36.3	0
0	12424	36.3	0
0	12425	36.3	0
0	12427	36.3	0
0	12428	36.3	0
0	12429	36.3	0
0	12439	36.35	0
0	12440	36.35	0
0	12441	36.35	0
0	12451	36.4	0
0	12452	36.4	0
0	12453	36.4	0
0	12455	36.4	0
0	12456	36.4	0
0	12457	36.4	0
0	12467	36.45	0
0	12468	36.45	0
0	12469	36.45	0
0	12479	36.5	0
0	12480	36.5	0
0	12481	36.5	0
0	12483	36.5	0
0	12484	36.5	0
0	12485	36.5	0
0	12495	36.55	0
0	12496	36.55	0
0	12497	36.55	0
0	12507	36.6	0
0	12508	36.6	0
0	12509	36.6	0
0	12511	36.6	0
0	12512	36.6	0
0	12513	36.6	0
0	12523	36.65	0
0	12524	36.65	0
0	12525	36.65	0
0	12535	36.7	0
0	12536	36.7	0
0	12537	36.7	0
0	12539	36.7	0
0	12540	36.7	0
0	12541	36.7	0
0	12551	36.75	0
0	12552	36.75	0
0	12553	36.75	0
0	12563	36.8	0
0	12564	36.8	0
0	12565	36.8	0
0	12567	36.8	0
0	12568	36.8	0
0	12569	36.8	0
0	12579	36.85	0
0	12580	36.85	0
0	12581	36.85	0
0	12591	36.9	0
0	12592	36.9	0
0	12593	36.9	0
0	12595	36.9	0
0	12596	36.9	0
0	12597	36.9	0
0	12607	36.95	0
0	12608	36.95	0
0	12609	36.95	0
0	12619	37	0
0	12620	37	0
0	12621	37	0
0	12623	37	0
0	12624	37	0
0	12625	37	0
0	12635	37.05	0
0	12636	37.05	0
0	12637	37.05	0
0	12649	37.1	0
0	12650	37.1	0
0	12651	37.1	0
0	12653	37.1	0
0	12654	37.1	0
0	12655	37.1	0
0	12667	37.15	0
0	12668	37.15	0
0	12669	37.15	0
0	12679	37.2	0
0	12680	37.2	0
0	12681	37.2	0
0	12683	37.2	0
0	12684	37.2	0
0	12685	37.2	0
0	12695	37.25	0
0	12696	37.25	0
0	12697	37.25	0
0	12707	37.3	0
0	12708	37.3	0
0	12709	37.3	0
0	12711	37.3	0
0	12712	37.3	0
0	12713	37.3	0
0	12723	37.35	0
0	12724	37.35	0
0	12725	37.35	0
0	12735	37.4	0
0	12736	37.4	0
0	12737	37.4	0
0	12739	37.4	0
0	12740	37.4	0
0	12741	37.4	0
0	12751	37.45	0
0	12752	37.45	0
0	12753	37.45	0
0	12763	37.5	0
0	12764	37.5	0
0	12765	37.5	0
0	12767	37.5	0
0	12768	37.5	0
0	12769	37.5	0
0	12779	37.55	0
0	12780	37.55	0
0	12781	37.55	0
0	12791	37.6	0
0	12792	37.6	0
0	12793	37.6	0
0	12795	37.6	0
0	12796	37.6	0
0	12797	37.6	0
0	12807	37.65	0
0	12808	37.65	0
0	12809	37.65	0
0	12819	37.7	0
0	12820	37.7	0
0	12821	37.7	0
0	12823	37.7	0
0	12824	37.7	0
0	12825	37.7	0
0	12835	37.75	0
0	12836	37.75	0
0	12837	37.75	0
0	12847	37.8	0
0	12848	37.8	0
0	12849	37.8	0
0	12851	37.8	0
0	12852	37.8	0
0	12853	37.8	0
0	12863	37.85	0
0	12864	37.85	0
0	12865	37.85	0
0	12875	37.9	0
0	12876	37.9	0
0	12877	37.9	0
0	12879	37.9	0
0	12880	37.9	0
0	12881	37.9	0
0	12891	37.95	0
0	12892	37.95	0
0	12893	37.95	0
0	12903	38	0
0	12904	38	0
0	12905	38	0
0	12907	38	0
0	12908	38	0
0	12909	38	0
0	12919	38.05	0
0	12920	38.05	0
0	12921	38.05	0
0	12933	38.1	0
0	12934	38.1	0
0	12935	38.1	0
0	12937	38.1	0
0	12938	38.1	0
0	12939	38.1	0
0	12951	38.15	0
0	12952	38.15	0
0	12953	38.15	0
0	12963	38.2	0
0	12964	38.2	0
0	12965	38.2	0
0	12967	38.2	0
0	12968	38.2	0
0	12969	38.2	0
0	12979	38.25	0
0	12980	38.25	0
0	12981	38.25	0
0	12991	38.3	0
0	12992	38.3	0
0	12993	38.3	0
0	12995	38.3	0
0	12996	38.3	0
0	12997	38.3	0
0	13007	38.35	0
0	13008	38.35	0
0	13009	38.35	0
0	13019	38.4	0
0	13020	38.4	0
0	13021	38.4	0
0	13023	38.4	0
0	13024	38.4	0
0	13025	38.4	0
0	13035	38.45	0
0	13036	38.45	0
0	13037	38.45	0
0	13047	38.5	0
0	13048	38.5	0
0	13049	38.5	0
0	13051	38.5	0
0	13052	38.5	0
0	13053	38.5	0
0	13063	38.55	0
0	13064	38.55	0
0	13065	38.55	0
0	13075	38.6	0
0	13076	38.6	0
0	13077	38.6	0
0	13079	38.6	0
0	13080	38.6	0
0	13081	38.6	0
0	13091	38.65	0
0	13092	38.65	0
0	13093	38.65	0
0	13103	38.7	0
0	13104	38.7	0
0	13105	38.7	0
0	13107	38.7	0
0	13108	38.7	0
0	13109	38.7	0
0	13119	38.75	0
0	13120	38.75	0
0	13121	38.75	0
0	13131	38.8	0
0	13132	38.8	0
0	13133	38.8	0
0	13135	38.8	0
0	13136	38.8	0
0	13137	38.8	0
0	13147	38.85	0
0	13148	38.85	0
0	13149	38.85	0
0	13159	38.9	0
0	13160	38.9	0
0	13161	38.9	0
0	13163	38.9	0
0	13164	38.9	0
0	13165	38.9	0
0	13175	38.95	0
0	13176	38.95	0
0	13177	38.95	0
0	13187	39	0
0	13188	39	0
0	13189	39	0
0	13191	39	0
0	13192	39	0
0	13193	39	0
0	13203	39.05	0
0	13204	39.05	0
0	13205	39.05	0
0	13217	39.1	0
0	13218	39.1	0
0	13219	39.1	0
0	13221	39.1	0
0	13222	39.1	0
0	13223	39.1	0
0	13235	39.15	0
0	13236	39.15	0
0	13237	39.15	0
0	13247	39.2	0
0	13248	39.2	0
0	13249	39.2	0
0	13251	39.2	0
0	13252	39.2	0
0	13253	39.2	0
0	13263	39.25	0
0	13264	39.25	0
0	13265	39.25	0
0	13275	39.3	0
0	13276	39.3	0
0	13277	39.3	0
0	13279	39.3	0
0	13280	39.3	0
0	13281	39.3	0
0	13291	39.35	0
0	13292	39.35	0
0	13293	39.35	0
0	13303	39.4	0
0	13304	39.4	0
0	13305	39.4	0
0	13307	39.4	0
0	13308	39.4	0
0	13309	39.4	0
0	13319	39.45	0
0	13320	39.45	0
0	13321	39.45	0
0	13331	39.5	0
0	13332	39.5	0
0	13333	39.5	0
0	13335	39.5	0
0	13336	39.5	0
0	13337	39.5	0
0	13347	39.55	0
0	13348	39.55	0
0	13349	39.55	0
0	13359	39.6	0
0	13360	39.6	0
0	13361	39.6	0
0	13363	39.6	0
0	13364	39.6	0
0	13365	39.6	0
0	13375	39.65	0
0	13376	39.65	0
0	13377	39.65	0
0	13387	39.7	0
0	13388	39.7	0
0	13389	39.7	0
0	13391	39.7	0
0	13392	39.7	0
0	13393	39.7	0
0	13403	39.75	0
0	13404	39.75	0
0	13405	39.75	0
0	13415	39.8	0
0	13416	39.8	0
0	13417	39.8	0
0	13419	39.8	0
0	13420	39.8	0
0	13421	39.8	0
0	13431	39.85	0
0	13432	39.85	0
0	13433	39.85	0
0	13443	39.9	0
0	13444	39.9	0
0	13445	39.9	0
0	13447	39.9	0
0	13448	39.9	0
0	13449	39.9	0
0	13459	39.95	0
0	13460	39.95	0
0	13461	39.95	0
0	13471	40	0
0	13472	40	0
0	13473	40	0
0	13475	40	0
0	13476	40	0
0	13477	40	0
0	13487	40.05	0
0	13488	40.05	0
0	13489	40.05	0
0	13501	40.1	0
0	13502	40.1	0
0	13503	40.1	0
0	13505	40.1	0
0	13506	40.1	0
0	13507	40.1	0
0	13519	40.15	0
0	13520	40.15	0
0	13521	40.15	0
0	13531	40.2	0
0	13532	40.2	0
0	13533	40.2	0
0	13535	40.2	0
0	13536	40.2	0
0	13537	40.2	0
0	13547	40.25	0
0	13548	40.25	0
0	13549	40.25	0
0	13559	40.3	0
0	13560	40.3	0
0	13561	40.3	0
0	13563	40.3	0
0	13564	40.3	0
0	13565	40.3	0
0	13575	40.35	0
0	13576	40.35	0
0	13577	40.35	0
0	13587	40.4	0
0	13588	40.4	0
0	13589	40.4	0
0	13591	40.4	0
0	13592	40.4	0
0	13593	40.4	0
0	13603	40.45	0
0	13604	40.45	0
0	13605	40.45	0
0	13615	40.5	0
0	13616	40.5	0
0	13617	40.5	0
0	13619	40.5	0
0	13620	40.5	0
0	13621	40.5	0
0	13631	40.55	0
0	13632	40.55	0
0	13633	40.55	0
0	13643	40.6	0
0	13644	40.6	0
0	13645	40.6	0
0	13647	40.6	0
0	13648	40.6	0
0	13649	40.6	0
0	13659	40.65	0
0	13660	40.65	0
0	13661	40.65	0
0	13671	40.7	0
0	13672	40.7	0
0	13673	40.7	0
0	13675	40.7	0
0	13676	40.7	0
0	13677	40.7	0
0	13687	40.75	0
0	13688	40.75	0
0	13689	40.75	0
0	13699	40.8	0
0	13700	40.8	0
0	13701	40.8	0
0	13703	40.8	0
0	13704	40.8	0
0	13705	40.8	0
0	13715	40.85	0
0	13716	40.85	0
0	13717	40.85	0
0	13727	40.9	0
0	13728	40.9	0
0	13729	40.9	0
0	13731	40.9	0
0	13732	40.9	0
0	13733	40.9	0
0	13743	40.95	0
0	13744	40.95	0
0	13745	40.95	0
0	13755	41	0
0	13756	41	0
0	13757	41	0
0	13759	41	0
0	13760	41	0
0	13761	41	0
0	13771	41.05	0
0	13772	41.05	0
0	13773	41.05	0
0	13785	41.1	0
0	13786	41.1	0
0	13787	41.1	0
0	13789	41.1	0
0	13790	41.1	0
0	13791	41.1	0
0	13803	41.15	0
0	13804	41.15	0
0	13805	41.15	0
0	13815	41.2	0
0	13816	41.2	0
0	13817	41.2	0
0	13819	41.2	0
0	13820	41.2	0
0	13821	41.2	0
0	13831	41.25	0
0	13832	41.25	0
0	13833	41.25	0
0	13843	41.3	0
0	13844	41.3	0
0	13845	41.3	0
0	13847	41.3	0
0	13848	41.3	0
0	13849	41.3	0
0	13859	41.35	0
0	13860	41.35	0
0	13861	41.35	0
0	13871	41.4	0
0	13872	41.4	0
0	13873	41.4	0
0	13875	41.4	0
0	13876	41.4	0
0	13877	41.4	0
0	13887	41.45	0
0	13888	41.45	0
0	13889	41.45	0
0	13899	41.5	0
0	13900	41.5	0
0	13901	41.5	0
0	13903	41.5	0
0	13904	41.5	0
0	13905	41.5	0
0	13915	41.55	0
0	13916	41.55	0
0	13917	41.55	0
0	13927	41.6	0
0	13928	41.6	0
0	13929	41.6	0
0	13931	41.6	0
0	13932	41.6	0
0	13933	41.6	0
0	13943	41.65	0
0	13944	41.65	0
0	13945	41.65	0
0	13955	41.7	0
0	13956	41.7	0
0	13957	41.7	0
0	13959	41.7	0
0	13960	41.7	0
0	13961	41.7	0
0	13971	41.75	0
0	13972	41.75	0
0	13973	41.75	0
0	13983	41.8	0
0	13984	41.8	0
0	13985	41.8	0
0	13987	41.8	0
0	13988	41.8	0
0	13989	41.8	0
0	13999	41.85	0
0	14000	41.85	0
0	14001	41.85	0
0	14011	41.9	0
0	14012	41.9	0
0	14013	41.9	0
0	14015	41.9	0
0	14016	41.9	0
0	14017	41.9	0
0	14027	41.95	0
0	14028	41.95	0
0	14029	41.95	0
0	14039	42	0
0	14040	42	0
0	14041	42	0
0	14043	42	0
0	14044	42	0
0	14045	42	0
0	14055	42.05	0
0	14056	42.05	0
0	14057	42.05	0
0	14069	42.1	0
0	14070	42.1	0
0	14071	42.1	0
0	14073	42.1	0
0	14074	42.1	0
0	14075	42.1	0
0	14087	42.15	0
0	14088	42.15	0
0	14089	42.15	0
0	14099	42.2	0
0	14100	42.2	0
0	14101	42.2	0
0	14103	42.2	0
0	14104	42.2	0
0	14105	42.2	0
0	14115	42.25	0
0	14116	42.25	0
0	14117	42.25	0
0	14127	42.3	0
0	14128	42.3	0
0	14129	42.3	0
0	14131	42.3	0
0	14132	42.3	0
0	14133	42.3	0
0	14143	42.35	0
0	14144	42.35	0
0	14145	42.35	0
0	14155	42.4	0
0	14156	42.4	0
0	14157	42.4	0
0	14159	42.4	0
0	14160	42.4	0
0	14161	42.4	0
0	14171	42.45	0
0	14172	42.45	0
0	14173	42.45	0
0	14183	42.5	0
0	14184	42.5	0
0	14185	42.5	0
0	14187	42.5	0
0	14188	42.5	0
0	14189	42.5	0
0	14199	42.55	0
0	14200	42.55	0
0	14201	42.55	0
0	14211	42.6	0
0	14212	42.6	0
0	14213	42.6	0
0	14215	42.6	0
0	14216	42.6	0
0	14217	42.6	0
0	14227	42.65	0
0	14228	42.65	0
0	14229	42.65	0
0	14239	42.7	0
0	14240	42.7	0
0	14241	42.7	0
0	14243	42.7	0
0	14244	42.7	0
0	14245	42.7	0
0	14255	42.75	0
0	14256	42.75	0
0	14257	42.75	0
0	14267	42.8	0
0	14268	42.8	0
0	14269	42.8	0
0	14271	42.8	0
0	14272	42.8	0
0	14273	42.8	0
0	14283	42.85	0
0	14284	42.85	0
0	14285	42.85	0
0	14295	42.9	0
0	14296	42.9	0
0	14297	42.9	0
0	14299	42.9	0
0	14300	42.9	0
0	14301	42.9	0
0	14311	42.95	0
0	14312	42.95	0
0	14313	42.95	0
0	14323	43	0
0	14324	43	0
0	14325	43	0
0	14327	43	0
0	14328	43	0
0	14329	43	0
0	14339	43.05	0
0	14340	43.05	0
0	14341	43.05	0
0	14353	43.1	0
0	14354	43.1	0
0	14355	43.1	0
0	14357	43.1	0
0	14358	43.1	0
0	14359	43.1	0
0	14371	43.15	0
0	14372	43.15	0
0	14373	43.15	0
0	14383	43.2	0
0	14384	43.2	0
0	14385	43.2	0
0	14387	43.2	0
0	14388	43.2	0
0	14389	43.2	0
0	14399	43.25	0
0	14400	43.25	0
0	14401	43.25	0
0	14411	43.3	0
0	14412	43.3	0
0	14413	43.3	0
0	14415	43.3	0
0	14416	43.3	0
0	14417	43.3	0
0	14427	43.35	0
0	14428	43.35	0
0	14429	43.35	0
0	14439	43.4	0
0	14440	43.4	0
0	14441	43.4	0
0	14443	43.4	0
0	14444	43.4	0
0	14445	43.4	0
0	14455	43.45	0
0	14456	43.45	0
0	14457	43.45	0
0	14467	43.5	0
0	14468	43.5	0
0	14469	43.5	0
0	14471	43.5	0
0	14472	43.5	0
0	14473	43.5	0
0	14483	43.55	0
0	14484	43.55	0
0	14485	43.55	0
0	14495	43.6	0
0	14496	43.6	0
0	14497	43.6	0
0	14499	43.6	0
0	14500	43.6	0
0	14501	43.6	0
0	14511	43.65	0
0	14512	43.65	0
0	14513	43.65	0
0	14523	43.7	0
0	14524	43.7	0
0	14525	43.7	0
0	14527	43.7	0
0	14528	43.7	0
0	14529	43.7	0
0	14539	43.75	0
0	14540	43.75	0
0	14541	43.75	0
0	14551	43.8	0
0	14552	43.8	0
0	14553	43.8	0
0	14555	43.8	0
0	14556	43.8	0
0	14557	43.8	0
0	14567	43.85	0
0	14568	43.85	0
0	14569	43.85	0
0	14579	43.9	0
0	14580	43.9	0
0	14581	43.9	0
0	14583	43.9	0
0	14584	43.9	0
0	14585	43.9	0
0	14595	43.95	0
0	14596	43.95	0
0	14597	43.95	0
0	14607	44	0
0	14608	44	0
0	14609	44	0
0	14611	44	0
0	14612	44	0
0	14613	44	0
0	14623	44.05	0
0	14624	44.05	0
0	14625	44.05	0
0	14637	44.1	0
0	14638	44.1	0
0	14639	44.1	0
0	14641	44.1	0
0	14642	44.1	0
0	14643	44.1	0
0	14655	44.15	0
0	14656	44.15	0
0	14657	44.15	0
0	14667	44.2	0
0	14668	44.2	0
0	14669	44.2	0
0	14671	44.2	0
0	14672	44.2	0
0	14673	44.2	0
0	14683	44.25	0
0	14684	44.25	0
0	14685	44.25	0
0	14695	44.3	0
0	14696	44.3	0
0	14697	44.3	0
0	14699	44.3	0
0	14700	44.3	0
0	14701	44.3	0
0	14711	44.35	0
0	14712	44.35	0
0	14713	44.35	0
0	14723	44.4	0
0	14724	44.4	0
0	14725	44.4	0
0	14727	44.4	0
0	14728	44.4	0
0	14729	44.4	0
0	14739	44.45	0
0	14740	44.45	0
0	14741	44.45	0
0	14751	44.5	0
0	14752	44.5	0
0	14753	44.5	0
0	14755	44.5	0
0	14756	44.5	0
0	14757	44.5	0
0	14767	44.55	0
0	14768	44.55	0
0	14769	44.55	0
0	14779	44.6	0
0	14780	44.6	0
0	14781	44.6	0
0	14783	44.6	0
0	14784	44.6	0
0	14785	44.6	0
0	14795	44.65	0
0	14796	44.65	0
0	14797	44.65	0
0	14807	44.7	0
0	14808	44.7	0
0	14809	44.7	0
0	14811	44.7	0
0	14812	44.7	0
0	14813	44.7	0
0	14823	44.75	0
0	14824	44.75	0
0	14825	44.75	0
0	14835	44.8	0
0	14836	44.8	0
0	14837	44.8	0
0	14839	44.8	0
0	14840	44.8	0
0	14841	44.8	0
0	14851	44.85	0
0	14852	44.85	0
0	14853	44.85	0
0	14863	44.9	0
0	14864	44.9	0
0	14865	44.9	0
0	14867	44.9	0
0	14868	44.9	0
0	14869	44.9	0
0	14879	44.95	0
0	14880	44.95	0
0	14881	44.95	0
0	14891	45	0
0	14892	45	0
0	14893	45	0
0	14895	45	0
0	14896	45	0
0	14897	45	0
0	14907	45.05	0
0	14908	45.05	0
0	14909	45.05	0
0	14921	45.1	0
0	14922	45.1	0
0	14923	45.1	0
0	14925	45.1	0
0	14926	45.1	0
0	14927	45.1	0
0	14939	45.15	0
0	14940	45.15	0
0	14941	45.15	0
0	14951	45.2	0
0	14952	45.2	0
0	14953	45.2	0
0	14955	45.2	0
0	14956	45.2	0
0	14957	45.2	0
0	14967	45.25	0
0	14968	45.25	0
0	14969	45.25	0
0	14979	45.3	0
0	14980	45.3	0
0	14981	45.3	0
0	14983	45.3	0
0	14984	45.3	0
0	14985	45.3	0
0	14995	45.35	0
0	14996	45.35	0
0	14997	45.35	0
0	15007	45.4	0
0	15008	45.4	0
0	15009	45.4	0
0	15011	45.4	0
0	15012	45.4	0
0	15013	45.4	0
0	15023	45.45	0
0	15024	45.45	0
0	15025	45.45	0
0	15035	45.5	0
0	15036	45.5	0
0	15037	45.5	0
0	15039	45.5	0
0	15040	45.5	0
0	15041	45.5	0
0	15051	45.55	0
0	15052	45.55	0
0	15053	45.55	0
0	15063	45.6	0
0	15064	45.6	0
0	15065	45.6	0
0	15067	45.6	0
0	15068	45.6	0
0	15069	45.6	0
0	15079	45.65	0
0	15080	45.65	0
0	15081	45.65	0
0	15091	45.7	0
0	15092	45.7	0
0	15093	45.7	0
0	15095	45.7	0
0	15096	45.7	0
0	15097	45.7	0
0	15107	45.75	0
0	15108	45.75	0
0	15109	45.75	0
0	15119	45.8	0
0	15120	45.8	0
0	15121	45.8	0
0	15123	45.8	0
0	15124	45.8	0
0	15125	45.8	0
0	15135	45.85	0
0	15136	45.85	0
0	15137	45.85	0
0	15147	45.9	0
0	15148	45.9	0
0	15149	45.9	0
0	15151	45.9	0
0	15152	45.9	0
0	15153	45.9	0
0	15163	45.95	0
0	15164	45.95	0
0	15165	45.95	0
0	15175	46	0
0	15176	46	0
0	15177	46	0
0	15179	46	0
0	15180	46	0
0	15181	46	0
0	15191	46.05	0
0	15192	46.05	0
0	15193	46.05	0
0	15205	46.1	0
0	15206	46.1	0
0	15207	46.1	0
0	15209	46.1	0
0	15210	46.1	0
0	15211	46.1	0
0	15223	46.15	0
0	15224	46.15	0
0	15225	46.15	0
0	15235	46.2	0
0	15236	46.2	0
0	15237	46.2	0
0	15239	46.2	0
0	15240	46.2	0
0	15241	46.2	0
0	15251	46.25	0
0	15252	46.25	0
0	15253	46.25	0
0	15263	46.3	0
0	15264	46.3	0
0	15265	46.3	0
0	15267	46.3	0
0	15268	46.3	0
0	15269	46.3	0
0	15279	46.35	0
0	15280	46.35	0
0	15281	46.35	0
0	15291	46.4	0
0	15292	46.4	0
0	15293	46.4	0
0	15295	46.4	0
0	15296	46.4	0
0	15297	46.4	0
0	15307	46.45	0
0	15308	46.45	0
0	15309	46.45	0
0	15319	46.5	0
0	15320	46.5	0
0	15321	46.5	0
0	15323	46.5	0
0	15324	46.5	0
0	15325	46.5	0
0	15335	46.55	0
0	15336	46.55	0
0	15337	46.55	0
0	15347	46.6	0
0	15348	46.6	0
0	15349	46.6	0
0	15351	46.6	0
0	15352	46.6	0
0	15353	46.6	0
0	15363	46.65	0
0	15364	46.65	0
0	15365	46.65	0
0	15375	46.7	0
0	15376	46.7	0
0	15377	46.7	0
0	15379	46.7	0
0	15380	46.7	0
0	15381	46.7	0
0	15391	46.75	0
0	15392	46.75	0
0	15393	46.75	0
0	15403	46.8	0
0	15404	46.8	0
0	15405	46.8	0
0	15407	46.8	0
0	15408	46.8	0
0	15409	46.8	0
0	15419	46.85	0
0	15420	46.85	0
0	15421	46.85	0
0	15431	46.9	0
0	15432	46.9	0
0	15433	46.9	0
0	15435	46.9	0
0	15436	46.9	0
0	15437	46.9	0
0	15447	46.95	0
0	15448	46.95	0
0	15449	46.95	0
0	15459	47	0
0	15460	47	0
0	15461	47	0
0	15463	47	0
0	15464	47	0
0	15465	47	0
0	15475	47.05	0
0	15476	47.05	0
0	15477	47.05	0
0	15489	47.1	0
0	15490	47.1	1
0	15491	47.1	1
0	15493	47.1	0
0	15494	47.1	1
0	15495	47.1	1
0	15511	47.15	0
0	15512	47.15	1
0	15513	47.15	1
0	15523	47.2	0
0	15524	47.2	1
0	15525	47.2	1
0	15527	47.2	0
0	15528	47.2	1
0	15529	47.2	1
0	15543	47.25	0
0	15544	47.25	1
0	15545	47.25	1
0	15555	47.3	0
0	15556	47.3	1
0	15557	47.3	1
0	15559	47.3	0
0	15560	47.3	1
0	15561	47.3	1
0	15575	47.35	0
0	15576	47.35	1
0	15577	47.35	1
0	15587	47.4	0
0	15588	47.4	1
0	15589	47.4	1
0	15591	47.4	0
0	15592	47.4	1
0	15593	47.4	1
0	15607	47.45	0
0	15608	47.45	1
0	15609	47.45	1
0	15619	47.5	0
0	15620	47.5	1
0	15621	47.5	1
0	15623	47.5	0
0	15624	47.5	1
0	15625	47.5	1
0	15639	47.55	0
0	15640	47.55	1
0	15641	47.55	1
0	15651	47.6	0
0	15652	47.6	1
0	15653	47.6	1
0	15655	47.6	0
0	15656	47.6	1
0	15657	47.6	1
0	15671	47.65	0
0	15672	47.65	1
0	15673	47.65	1
0	15683	47.7	0
0	15684	47.7	1
0	15685	47.7	1
0	15687	47.7	0
0	15688	47.7	1
0	15689	47.7	1
0	15703	47.75	0
0	15704	47.75	1
0	15705	47.75	1
0	15715	47.8	0
0	15716	47.8	1
0	15717	47.8	1
0	15719	47.8	0
0	15720	47.8	1
0	15721	47.8	1
0	15735	47.85	0
0	15736	47.85	1
0	15737	47.85	1
0	15747	47.9	0
0	15748	47.9	1
0	15749	47.9	1
0	15751	47.9	0
0	15752	47.9	1
0	15753	47.9	1
0	15767	47.95	0
0	15768	47.95	1
0	15769	47.95	1
0	15779	48	0
0	15780	48	1
0	15781	48	1
0	15783	48	0
0	15784	48	1
0	15785	48	1
0	15799	48.05	0
0	15800	48.05	1
0	15801	48.05	1
0	15813	48.1	0
0	15814	48.1	1
0	15815	48.1	1
0	15817	48.1	0
0	15818	48.1	1
0	15819	48.1	1
0	15835	48.15	0
0	15836	48.15	1
0	15837	48.15	1
0	15860	48.2	0
0	15861	48.2	1
0	15862	48.2	1
0	15864	48.2	0
0	15865	48.2	1
0	15866	48.2	1
0	15880	48.25	0
0	15881	48.25	1
0	15882	48.25	1
0	15892	48.3	0
0	15893	48.3	1
0	15894	48.3	1
0	15896	48.3	0
0	15897	48.3	1
0	15898	48.3	1
0	15912	48.35	0
0	15913	48.35	1
0	15914	48.35	1
0	15924	48.4	0
0	15925	48.4	1
0	15926	48.4	1
0	15928	48.4	0
0	15929	48.4	1
0	15930	48.4	1
0	15944	48.45	0
0	15945	48.45	1
0	15946	48.45	1
0	15956	48.5	0
0	15957	48.5	1
0	15958	48.5	1
0	15960	48.5	0
0	15961	48.5	1
0	15962	48.5	1
0	15976	48.55	0
0	15977	48.55	1
0	15978	48.55	1
0	15988	48.6	0
0	15989	48.6	1
0	15990	48.6	1
0	15992	48.6	0
0	15993	48.6	1
0	15994	48.6	1
0	16008	48.65	0
0	16009	48.65	1
0	16010	48.65	1
0	16020	48.7	0
0	16021	48.7	1
0	16022	48.7	1
0	16024	48.7	0
0	16025	48.7	1
0	16026	48.7	1
0	16054	48.75	0
0	16055	48.75	1
0	16056	48.75	1
0	16066	48.8	0
0	16067	48.8	1
0	16068	48.8	1
0	16070	48.8	0
0	16071	48.8	1
0	16072	48.8	1
0	16086	48.85	0
0	16087	48.85	1
0	16088	48.85	1
0	16215	48.9	0
0	16216	48.9	1
0	16217	48.9	1
0	16219	48.9	0
0	16220	48.9	1
0	16221	48.9	1
0	16259	48.95	0
0	16260	48.95	1
0	16261	48.95	1
0	16293	49	0
0	16294	49	1
0	16295	49	1
0	16297	49	0
0	16298	49	1
0	16299	49	1
0	16353	49.05	0
0	16354	49.05	1
0	16355	49.05	1
0	16398	49.1	0
0	16399	49.1	1
0	16400	49.1	1
0	16402	49.1	0
0	16403	49.1	1
0	16404	49.1	1
0	16456	49.15	0
0	16457	49.15	1
0	16458	49.15	1
0	16508	49.2	0
0	16509	49.2	1
0	16510	49.2	1
0	16512	49.2	0
0	16513	49.2	1
0	16514	49.2	1
0	16558	49.25	0
0	16559	49.25	1
0	16560	49.25	1
0	16610	49.3	0
0	16611	49.3	1
0	16612	49.3	1
0	16614	49.3	0
0	16615	49.3	1
0	16616	49.3	1
0	16666	49.35	0
0	16667	49.35	1
0	16668	49.35	1
0	16703	49.4	0
0	16704	49.4	1
0	16705	49.4	1
0	16707	49.4	0
0	16708	49.4	1
0	16709	49.4	1
0	16757	49.45	0
0	16758	49.45	1
0	16759	49.45	1
0	16799	49.5	0
0	16800	49.5	1
0	16801	49.5	1
0	16803	49.5	0
0	16804	49.5	1
0	16805	49.5	1
0	16829	49.55	0
0	16830	49.55	1
0	16831	49.55	1
0	16841	49.6	0
0	16842	49.6	1
0	16843	49.6	1
0	16845	49.6	0
0	16846	49.6	1
0	16847	49.6	1
0	16861	49.65	0
0	16862	49.65	1
0	16863	49.65	1
0	16873	49.7	0
0	16874	49.7	1
0	16875	49.7	1
0	16877	49.7	0
0	16878	49.7	1
0	16879	49.7	1
0	16893	49.75	0
0	16894	49.75	1
0	16895	49.75	1
0	16905	49.8	0
0	16906	49.8	1
0	16907	49.8	1
0	16909	49.8	0
0	16910	49.8	1
0	16911	49.8	1
0	16925	49.85	0
0	16926	49.85	1
0	16927	49.85	1
0	16937	49.9	0
0	16938	49.9	1
0	16939	49.9	1
0	16941	49.9	0
0	16942	49.9	1
0	16943	49.9	1
0	16957	49.95	0
0	16958	49.95	1
0	16959	49.95	1
0	16969	50	0
0	16970	50	1
0	16971	50	1
0	16973	50	0
0	16974	50	1
0	16975	50	1
0	16989	50.05	0
0	16990	50.05	1
0	16991	50.05	1
0	17003	50.1	0
0	17004	50.1	1
0	17005	50.1	1
0	17007	50.1	0
0	17008	50.1	1
0	17009	50.1	1
0	17025	50.15	0
0	17026	50.15	1
0	17027	50.15	1
0	17037	50.2	0
0	17038	50.2	1
0	17039	50.2	1
0	17041	50.2	0
0	17042	50.2	1
0	17043	50.2	1
0	17057	50.25	0
0	17058	50.25	1
0	17059	50.25	1
0	17069	50.3	0
0	17070	50.3	1
0	17071	50.3	1
0	17073	50.3	0
0	17074	50.3	1
0	17075	50.3	1
0	17089	50.35	0
0	17090	50.35	1
0	17091	50.35	1
0	17101	50.4	0
0	17102	50.4	1
0	17103	50.4	1
0	17105	50.4	0
0	17106	50.4	1
0	17107	50.4	1
0	17121	50.45	0
0	17122	50.45	1
0	17123	50.45	1
0	17191	50.5	0
0	17192	50.5	1
0	17193	50.5	1
0	17195	50.5	0
0	17196	50.5	1
0	17197	50.5	1
0	17247	50.55	0
0	17248	50.55	1
0	17249	50.55	1
0	17293	50.6	0
0	17294	50.6	1
0	17295	50.6	1
0	17297	50.6	0
0	17298	50.6	1
0	17299	50.6	1
0	17357	50.65	0
0	17358	50.65	1
0	17359	50.65	1
0	17369	50.7	0
0	17370	50.7	1
0	17371	50.7	1
0	17373	50.7	0
0	17374	50.7	1
0	17375	50.7	1
0	17389	50.75	0
0	17390	50.75	1
0	17391	50.75	1
0	17401	50.8	0
0	17402	50.8	1
0	17403	50.8	1
0	17405	50.8	0
0	17406	50.8	1
0	17407	50.8	1
0	17421	50.85	0
0	17422	50.85	1
0	17423	50.85	1
0	17433	50.9	0
0	17434	50.9	1
0	17435	50.9	1
0	17437	50.9	0
0	17438	50.9	1
0	17439	50.9	1
0	17453	50.95	0
0	17454	50.95	1
0	17455	50.95	1
0	17465	51	0
0	17466	51	1
0	17467	51	1
0	17469	51	0
0	17470	51	1
0	17471	51	1
0	17499	51.05	0
0	17500	51.05	1
0	17501	51.05	1
0	17513	51.1	0
0	17514	51.1	1
0	17515	51.1	1
0	17517	51.1	0
0	17518	51.1	1
0	17519	51.1	1
0	17535	51.15	0
0	17536	51.15	1
0	17537	51.15	1
0	17561	51.2	0
0	17562	51.2	1
0	17563	51.2	1
0	17565	51.2	0
0	17566	51.2	1
0	17567	51.2	1
0	17581	51.25	0
0	17582	51.25	1
0	17583	51.25	1
0	17593	51.3	0
0	17594	51.3	1
0	17595	51.3	1
0	17597	51.3	0
0	17598	51.3	1
0	17599	51.3	1
0	17613	51.35	0
0	17614	51.35	1
0	17615	51.35	1
0	17625	51.4	0
0	17626	51.4	1
0	17627	51.4	1
0	17629	51.4	0
0	17630	51.4	1
0	17631	51.4	1
0	17645	51.45	0
0	17646	51.45	1
0	17647	51.45	1
0	17657	51.5	0
0	17658	51.5	1
0	17659	51.5	1
0	17661	51.5	0
0	17662	51.5	1
0	17663	51.5	1
0	17677	51.55	0
0	17678	51.55	1
0	17679	51.55	1
0	17715	51.6	0
0	17716	51.6	1
0	17717	51.6	1
0	17719	51.6	0
0	17720	51.6	1
0	17721	51.6	1
0	17735	51.65	0
0	17736	51.65	1
0	17737	51.65	1
0	17747	51.7	0
0	17748	51.7	1
0	17749	51.7	1
0	17751	51.7	0
0	17752	51.7	1
0	17753	51.7	1
0	17781	51.75	0
0	17782	51.75	1
0	17783	51.75	1
0	17793	51.8	0
0	17794	51.8	1
0	17795	51.8	1
0	17797	51.8	0
0	17798	51.8	1
0	17799	51.8	1
0	17813	51.85	0
0	17814	51.85	1
0	17815	51.85	1
0	17825	51.9	0
0	17826	51.9	1
0	17827	51.9	1
0	17829	51.9	0
0	17830	51.9	1
0	17831	51.9	1
0	17845	51.95	0
0	17846	51.95	1
0	17847	51.95	1
0	17857	52	0
0	17858	52	1
0	17859	52	1
0	17861	52	0
0	17862	52	1
0	17863	52	1
0	17877	52.05	0
0	17878	52.05	1
0	17879	52.05	1
0	17891	52.1	0
0	17892	52.1	1
0	17893	52.1	1
0	17895	52.1	0
0	17896	52.1	1
0	17897	52.1	1
0	17939	52.15	0
0	17940	52.15	1
0	17941	52.15	1
0	17951	52.2	0
0	17952	52.2	1
0	17953	52.2	1
0	17955	52.2	0
0	17956	52.2	1
0	17957	52.2	1
0	17971	52.25	0
0	17972	52.25	1
0	17973	52.25	1
0	17997	52.3	0
0	17998	52.3	1
0	17999	52.3	1
0	18001	52.3	0
0	18002	52.3	1
0	18003	52.3	1
0	18017	52.35	0
0	18018	52.35	1
0	18019	52.35	1
0	18029	52.4	0
0	18030	52.4	1
0	18031	52.4	1
0	18033	52.4	0
0	18034	52.4	1
0	18035	52.4	1
0	18049	52.45	0
0	18050	52.45	1
0	18051	52.45	1
0	18061	52.5	0
0	18062	52.5	1
0	18063	52.5	1
0	18065	52.5	0
0	18066	52.5	1
0	18067	52.5	1
0	18081	52.55	0
0	18082	52.55	1
0	18083	52.55	1
0	18093	52.6	0
0	18094	52.6	1
0	18095	52.6	1
0	18097	52.6	0
0	18098	52.6	1
0	18099	52.6	1
0	18113	52.65	0
0	18114	52.65	1
0	18115	52.65	1
0	18139	52.7	0
0	18140	52.7	1
0	18141	52.7	1
0	18143	52.7	0
0	18144	52.7	1
0	18145	52.7	1
0	18159	52.75	0
0	18160	52.75	1
0	18161	52.75	1
0	18171	52.8	0
0	18172	52.8	1
0	18173	52.8	1
0	18175	52.8	0
0	18176	52.8	1
0	18177	52.8	1
0	18205	52.85	0
0	18206	52.85	1
0	18207	52.85	1
0	18217	52.9	0
0	18218	52.9	1
0	18219	52.9	1
0	18221	52.9	0
0	18222	52.9	1
0	18223	52.9	1
0	18237	52.95	0
0	18238	52.95	1
0	18239	52.95	1
0	18249	53	0
0	18250	53	1
0	18251	53	1
0	18253	53	0
0	18254	53	1
0	18255	53	1
0	18269	53.05	0
0	18270	53.05	1
0	18271	53.05	1
0	18283	53.1	0
0	18284	53.1	1
0	18285	53.1	1
0	18287	53.1	0
0	18288	53.1	1
0	18289	53.1	1
0	18305	53.15	0
0	18306	53.15	1
0	18307	53.15	1
0	18317	53.2	0
0	18318	53.2	1
0	18319	53.2	1
0	18321	53.2	0
0	18322	53.2	1
0	18323	53.2	1
0	18363	53.25	0
0	18364	53.25	1
0	18365	53.25	1
0	18375	53.3	0
0	18376	53.3	1
0	18377	53.3	1
0	18379	53.3	0
0	18380	53.3	1
0	18381	53.3	1
0	18395	53.35	0
0	18396	53.35	1
0	18397	53.35	1
0	18421	53.4	0
0	18422	53.4	1
0	18423	53.4	1
0	18425	53.4	0
0	18426	53.4	1
0	18427	53.4	1
0	18441	53.45	0
0	18442	53.45	1
0	18443	53.45	1
0	18453	53.5	0
0	18454	53.5	1
0	18455	53.5	1
0	18457	53.5	0
0	18458	53.5	1
0	18459	53.5	1
0	18473	53.55	0
0	18474	53.55	1
0	18475	53.55	1
0	18485	53.6	0
0	18486	53.6	1
0	18487	53.6	1
0	18489	53.6	0
0	18490	53.6	1
0	18491	53.6	1
0	18505	53.65	0
0	18506	53.65	1
0	18507	53.65	1
0	18517	53.7	0
0	18518	53.7	1
0	18519	53.7	1
0	18521	53.7	0
0	18522	53.7	1
0	18523	53.7	1
0	18537	53.75	0
0	18538	53.75	1
0	18539	53.75	1
0	18563	53.8	0
0	18564	53.8	1
0	18565	53.8	1
0	18567	53.8	0
0	18568	53.8	1
0	18569	53.8	1
0	18583	53.85	0
0	18584	53.85	1
0	18585	53.85	1
0	18595	53.9	0
0	18596	53.9	1
0	18597	53.9	1
0	18599	53.9	0
0	18600	53.9	1
0	18601	53.9	1
0	18629	53.95	0
0	18630	53.95	1
0	18631	53.95	1
0	18641	54	0
0	18642	54	1
0	18643	54	1
0	18645	54	0
0	18646	54	1
0	18647	54	1
0	18661	54.05	0
0	18662	54.05	1
0	18663	54.05	1
0	18675	54.1	0
0	18676	54.1	1
0	18677	54.1	1
0	18679	54.1	0
0	18680	54.1	1
0	18681	54.1	1
0	18697	54.15	0
0	18698	54.15	1
0	18699	54.15	1
0	18709	54.2	0
0	18710	54.2	1
0	18711	54.2	1
0	18713	54.2	0
0	18714	54.2	1
0	18715	54.2	1
0	18729	54.25	0
0	18730	54.25	1
0	18731	54.25	1
0	18741	54.3	0
0	18742	54.3	1
0	18743	54.3	1
0	18745	54.3	0
0	18746	54.3	1
0	18747	54.3	1
0	18787	54.35	0
0	18788	54.35	1
0	18789	54.35	1
0	18799	54.4	0
0	18800	54.4	1
0	18801	54.4	1
0	18803	54.4	0
0	18804	54.4	1
0	18805	54.4	1
0	18819	54.45	0
0	18820	54.45	1
0	18821	54.45	1
0	18845	54.5	0
0	18846	54.5	1
0	18847	54.5	1
0	18849	54.5	0
0	18850	54.5	1
0	18851	54.5	1
0	18865	54.55	0
0	18866	54.55	1
0	18867	54.55	1
0	18877	54.6	0
0	18878	54.6	1
0	18879	54.6	1
0	18881	54.6	0
0	18882	54.6	1
0	18883	54.6	1
0	18897	54.65	0
0	18898	54.65	1
0	18899	54.65	1
0	18909	54.7	0
0	18910	54.7	1
0	18911	54.7	1
0	18913	54.7	0
0	18914	54.7	1
0	18915	54.7	1
0	18929	54.75	0
0	18930	54.75	1
0	18931	54.75	1
0	18941	54.8	0
0	18942	54.8	1
0	18943	54.8	1
0	18945	54.8	0
0	18946	54.8	1
0	18947	54.8	1
0	18961	54.85	0
0	18962	54.85	1
0	18963	54.85	1
0	18987	54.9	0
0	18988	54.9	1
0	18989	54.9	1
0	18991	54.9	0
0	18992	54.9	1
0	18993	54.9	1
0	19007	54.95	0
0	19008	54.95	1
0	19009	54.95	1
0	19019	55	0
0	19020	55	1
0	19021	55	1
0	19023	55	0
0	19024	55	1
0	19025	55	1
0	19053	55.05	0
0	19054	55.05	1
0	19055	55.05	1
0	19067	55.1	0
0	19068	55.1	1
0	19069	55.1	1
0	19070	55.1	0
0	19071	55.1	1
0	19072	55.1	1
0	19088	55.15	0
0	19089	55.15	1
0	19090	55.15	1
0	19100	55.2	0
0	19101	55.2	1
0	19102	55.2	1
0	19103	55.2	0
0	19104	55.2	1
0	19105	55.2	1
0	19119	55.25	0
0	19120	55.25	1
0	19121	55.25	1
0	19131	55.3	0
0	19132	55.3	1
0	19133	55.3	1
0	19134	55.3	0
0	19135	55.3	1
0	19136	55.3	1
0	19150	55.35	0
0	19151	55.35	1
0	19152	55.35	1
0	19162	55.4	0
0	19163	55.4	1
0	19164	55.4	1
0	19165	55.4	0
0	19166	55.4	1
0	19167	55.4	1
0	19207	55.45	0
0	19208	55.45	1
0	19209	55.45	1
0	19219	55.5	0
0	19220	55.5	1
0	19221	55.5	1
0	19222	55.5	0
0	19223	55.5	1
0	19224	55.5	1
0	19238	55.55	0
0	19239	55.55	1
0	19240	55.55	1
0	19264	55.6	0
0	19265	55.6	1
0	19266	55.6	1
0	19267	55.6	0
0	19268	55.6	1
0	19269	55.6	1
0	19283	55.65	0
0	19284	55.65	1
0	19285	55.65	1
0	19295	55.7	0
0	19296	55.7	1
0	19297	55.7	1
0	19298	55.7	0
0	19299	55.7	1
0	19300	55.7	1
0	19314	55.75	0
0	19315	55.75	1
0	19316	55.75	1
0	19326	55.8	0
0	19327	55.8	1
0	19328	55.8	1
0	19329	55.8	0
0	19330	55.8	1
0	19331	55.8	1
0	19345	55.85	0
0	19346	55.85	1
0	19347	55.85	1
0	19357	55.9	0
0	19358	55.9	1
0	19359	55.9	1
0	19360	55.9	0
0	19361	55.9	1
0	19362	55.9	1
0	19376	55.95	0
0	19377	55.95	1
0	19378	55.95	1
0	19402	56	0
0	19403	56	1
0	19404	56	1
0	19405	56	0
0	19406	56	1
0	19407	56	1
0	19421	56.05	0
0	19422	56.05	1
0	19423	56.05	1
0	19435	56.1	0
0	19436	56.1	1
0	19437	56.1	1
0	19438	56.1	0
0	19439	56.1	1
0	19440	56.1	1
0	19470	56.15	0
0	19471	56.15	1
0	19472	56.15	1
0	19482	56.2	0
0	19483	56.2	1
0	19484	56.2	1
0	19485	56.2	0
0	19486	56.2	1
0	19487	56.2	1
0	19501	56.25	0
0	19502	56.25	1
0	19503	56.25	1
0	19513	56.3	0
0	19514	56.3	1
0	19515	56.3	1
0	19516	56.3	0
0	19517	56.3	1
0	19518	56.3	1
0	19532	56.35	0
0	19533	56.35	1
0	19534	56.35	1
0	19544	56.4	0
0	19545	56.4	1
0	19546	56.4	1
0	19547	56.4	0
0	19548	56.4	1
0	19549	56.4	1
0	19563	56.45	0
0	19564	56.45	1
0	19565	56.45	1
0	19575	56.5	0
0	19576	56.5	1
0	19577	56.5	1
0	19578	56.5	0
0	19579	56.5	1
0	19580	56.5	1
0	19620	56.55	0
0	19621	56.55	1
0	19622	56.55	1
0	19632	56.6	0
0	19633	56.6	1
0	19634	56.6	1
0	19635	56.6	0
0	19636	56.6	1
0	19637	56.6	1
0	19651	56.65	0
0	19652	56.65	1
0	19653	56.65	1
0	19677	56.7	0
0	19678	56.7	1
0	19679	56.7	1
0	19680	56.7	0
0	19681	56.7	1
0	19682	56.7	1
0	19696	56.75	0
0	19697	56.75	1
0	19698	56.75	1
0	19708	56.8	0
0	19709	56.8	1
0	19710	56.8	1
0	19711	56.8	0
0	19712	56.8	1
0	19713	56.8	1
0	19727	56.85	0
0	19728	56.85	1
0	19729	56.85	1
0	19739	56.9	0
0	19740	56.9	1
0	19741	56.9	1
0	19742	56.9	0
0	19743	56.9	1
0	19744	56.9	1
0	19758	56.95	0
0	19759	56.95	1
0	19760	56.95	1
0	19770	57	0
0	19771	57	1
0	19772	57	1
0	19773	57	0
0	19774	57	1
0	19775	57	1
0	19789	57.05	0
0	19790	57.05	1
0	19791	57.05	1
0	19817	57.1	0
0	19818	57.1	1
0	19819	57.1	1
0	19820	57.1	0
0	19821	57.1	1
0	19822	57.1	1
0	19838	57.15	0
0	19839	57.15	1
0	19840	57.15	1
0	19850	57.2	0
0	19851	57.2	1
0	19852	57.2	1
0	19853	57.2	0
0	19854	57.2	1
0	19855	57.2	1
0	19883	57.25	0
0	19884	57.25	1
0	19885	57.25	1
0	19895	57.3	0
0	19896	57.3	1
0	19897	57.3	1
0	19898	57.3	0
0	19899	57.3	1
0	19900	57.3	1
0	19914	57.35	0
0	19915	57.35	1
0	19916	57.35	1
0	19926	57.4	0
0	19927	57.4	1
0	19928	57.4	1
0	19929	57.4	0
0	19930	57.4	1
0	19931	57.4	1
0	19945	57.45	0
0	19946	57.45	1
0	19947	57.45	1
0	19957	57.5	0
0	19958	57.5	1
0	19959	57.5	1
0	19960	57.5	0
0	19961	57.5	1
0	19962	57.5	1
0	19976	57.55	0
0	19977	57.55	1
0	19978	57.55	1
0	19988	57.6	0
0	19989	57.6	1
0	19990	57.6	1
0	19991	57.6	0
0	19992	57.6	1
0	19993	57.6	1
0	20033	57.65	0
0	20034	57.65	1
0	20035	57.65	1
0	20045	57.7	0
0	20046	57.7	1
0	20047	57.7	1
0	20048	57.7	0
0	20049	57.7	1
0	20050	57.7	1
0	20064	57.75	0
0	20065	57.75	1
0	20066	57.75	1
0	20090	57.8	0
0	20091	57.8	1
0	20092	57.8	1
0	20093	57.8	0
0	20094	57.8	1
0	20095	57.8	1
0	20109	57.85	0
0	20110	57.85	1
0	20111	57.85	1
0	20121	57.9	0
0	20122	57.9	1
0	20123	57.9	1
0	20124	57.9	0
0	20125	57.9	1
0	20126	57.9	1
0	20140	57.95	0
0	20141	57.95	1
0	20142	57.95	1
0	20152	58	0
0	20153	58	1
0	20154	58	1
0	20155	58	0
0	20156	58	1
0	20157	58	1
0	20171	58.05	0
0	20172	58.05	1
0	20173	58.05	1
0	20185	58.1	0
0	20186	58.1	1
0	20187	58.1	1
0	20188	58.1	0
0	20189	58.1	1
0	20190	58.1	1
0	20206	58.15	0
0	20207	58.15	1
0	20208	58.15	1
0	20244	58.2	0
0	20245	58.2	1
0	20246	58.2	1
0	20247	58.2	0
0	20248	58.2	1
0	20249	58.2	1
0	20263	58.25	0
0	20264	58.25	1
0	20265	58.25	1
0	20275	58.3	0
0	20276	58.3	1
0	20277	58.3	1
0	20278	58.3	0
0	20279	58.3	1
0	20280	58.3	1
0	20308	58.35	0
0	20309	58.35	1
0	20310	58.35	1
0	20320	58.4	0
0	20321	58.4	1
0	20322	58.4	1
0	20323	58.4	0
0	20324	58.4	1
0	20325	58.4	1
0	20339	58.45	0
0	20340	58.45	1
0	20341	58.45	1
0	20351	58.5	0
0	20352	58.5	1
0	20353	58.5	1
0	20354	58.5	0
0	20355	58.5	1
0	20356	58.5	1
0	20370	58.55	0
0	20371	58.55	1
0	20372	58.55	1
0	20382	58.6	0
0	20383	58.6	1
0	20384	58.6	1
0	20385	58.6	0
0	20386	58.6	1
0	20387	58.6	1
0	20401	58.65	0
0	20402	58.65	1
0	20403	58.65	1
0	20413	58.7	0
0	20414	58.7	1
0	20415	58.7	1
0	20416	58.7	0
0	20417	58.7	1
0	20418	58.7	1
[...]
0	29397	82.5	1
0	29398	82.5	1
0	29426	82.55	0
0	29427	82.55	1
0	29428	82.55	1
0	29438	82.6	0
0	29439	82.6	1
0	29440	82.6	1
0	29441	82.6	0
0	29442	82.6	1
0	29443	82.6	1
0	29457	82.65	0
0	29458	82.65	1
0	29459	82.65	1
0	29469	82.7	0
0	29470	82.7	1
0	29471	82.7	1
0	29472	82.7	0
0	29473	82.7	1
0	29474	82.7	1
0	29488	82.75	0
0	29489	82.75	1
0	29490	82.75	1
0	29500	82.8	0
0	29501	82.8	1
0	29502	82.8	1
0	29503	82.8	0
0	29504	82.8	1
0	29505	82.8	1
0	29519	82.85	0
0	29520	82.85	1
0	29521	82.85	1
0	29531	82.9	0
0	29532	82.9	1
0	29533	82.9	1
0	29534	82.9	0
0	29535	82.9	1
0	29536	82.9	1
0	29564	82.95	0
0	29565	82.95	1
0	29566	82.95	1
0	29576	83	0
0	29577	83	1
0	29578	83	1
0	29579	83	0
0	29580	83	1
0	29581	83	1
0	29595	83.05	0
0	29596	83.05	1
0	29597	83.05	1
0	29623	83.1	0
0	29624	83.1	1
0	29625	83.1	1
0	29626	83.1	0
0	29627	83.1	1
0	29628	83.1	1
0	29644	83.15	0
0	29645	83.15	1
0	29646	83.15	1
0	29656	83.2	0
0	29657	83.2	1
0	29658	83.2	1
0	29659	83.2	0
0	29660	83.2	1
0	29661	83.2	1
0	29675	83.25	0
0	29676	83.25	1
0	29677	83.25	1
0	29687	83.3	0
0	29688	83.3	1
0	29689	83.3	1
0	29690	83.3	0
0	29691	83.3	1
0	29692	83.3	1
0	29706	83.35	0
0	29707	83.35	1
0	29708	83.35	1
0	29718	83.4	0
0	29719	83.4	1
0	29720	83.4	1
0	29721	83.4	0
0	29722	83.4	1
0	29723	83.4	1
0	29737	83.45	0
0	29738	83.45	1
0	29739	83.45	1
0	29775	83.5	0
0	29776	83.5	1
0	29777	83.5	1
0	29778	83.5	0
0	29779	83.5	1
0	29780	83.5	1
0	29794	83.55	0
0	29795	83.55	1
0	29796	83.55	1
0	29806	83.6	0
0	29807	83.6	1
0	29808	83.6	1
0	29809	83.6	0
0	29810	83.6	1
0	29811	83.6	1
0	29839	83.65	0
0	29840	83.65	1
0	29841	83.65	1
0	29851	83.7	0
0	29852	83.7	1
0	29853	83.7	1
0	29854	83.7	0
0	29855	83.7	1
0	29856	83.7	1
0	29870	83.75	0
0	29871	83.75	1
0	29872	83.75	1
0	29882	83.8	0
0	29883	83.8	1
0	29884	83.8	1
0	29885	83.8	0
0	29886	83.8	1
0	29887	83.8	1
0	29901	83.85	0
0	29902	83.85	1
0	29903	83.85	1
0	29913	83.9	0
0	29914	83.9	1
0	29915	83.9	1
0	29916	83.9	0
0	29917	83.9	1
0	29918	83.9	1
0	29932	83.95	0
0	29933	83.95	1
0	29934	83.95	1
0	29944	84	0
0	29945	84	1
0	29946	84	1
0	29947	84	0
0	29948	84	1
0	29949	84	1
0	29977	84.05	0
0	29978	84.05	1
0	29979	84.05	1
0	29991	84.1	0
0	29992	84.1	1
0	29993	84.1	1
0	29994	84.1	0
0	29995	84.1	1
0	29996	84.1	1
0	30012	84.15	0
0	30013	84.15	1
0	30014	84.15	1
0	30038	84.2	0
0	30039	84.2	1
0	30040	84.2	1
0	30041	84.2	0
0	30042	84.2	1
0	30043	84.2	1
0	30057	84.25	0
0	30058	84.25	1
0	30059	84.25	1
0	30069	84.3	0
0	30070	84.3	1
0	30071	84.3	1
0	30072	84.3	0
0	30073	84.3	1
0	30074	84.3	1
0	30088	84.35	0
0	30089	84.35	1
0	30090	84.35	1
0	30100	84.4	0
0	30101	84.4	1
0	30102	84.4	1
0	30103	84.4	0
0	30104	84.4	1
0	30105	84.4	1
0	30119	84.45	0
0	30120	84.45	1
0	30121	84.45	1
0	30131	84.5	0
0	30132	84.5	1
0	30133	84.5	1
0	30134	84.5	0
0	30135	84.5	1
0	30136	84.5	1
0	30150	84.55	0
0	30151	84.55	1
0	30152	84.55	1
0	30188	84.6	0
0	30189	84.6	1
0	30190	84.6	1
0	30191	84.6	0
0	30192	84.6	1
0	30193	84.6	1
0	30207	84.65	0
0	30208	84.65	1
0	30209	84.65	1
0	30219	84.7	0
0	30220	84.7	1
0	30221	84.7	1
0	30222	84.7	0
0	30223	84.7	1
0	30224	84.7	1
0	30252	84.75	0
0	30253	84.75	1
0	30254	84.75	1
0	30264	84.8	0
0	30265	84.8	1
0	30266	84.8	1
0	30267	84.8	0
0	30268	84.8	1
0	30269	84.8	1
0	30283	84.85	0
0	30284	84.85	1
0	30285	84.85	1
0	30295	84.9	0
0	30296	84.9	1
0	30297	84.9	1
0	30298	84.9	0
0	30299	84.9	1
0	30300	84.9	1
0	30314	84.95	0
0	30315	84.95	1
0	30316	84.95	1
0	30326	85	0
0	30327	85	1
0	30328	85	1
0	30329	85	0
0	30330	85	1
0	30331	85	1
0	30345	85.05	0
0	30346	85.05	1
0	30347	85.05	1
0	30359	85.1	0
0	30360	85.1	1
0	30361	85.1	1
0	30362	85.1	0
0	30363	85.1	1
0	30364	85.1	1
0	30406	85.15	0
0	30407	85.15	1
0	30408	85.15	1
0	30418	85.2	0
0	30419	85.2	1
0	30420	85.2	1
0	30421	85.2	0
0	30422	85.2	1
0	30423	85.2	1
0	30437	85.25	0
0	30438	85.25	1
0	30439	85.25	1
0	30463	85.3	0
0	30464	85.3	1
0	30465	85.3	1
0	30466	85.3	0
0	30467	85.3	1
0	30468	85.3	1
0	30482	85.35	0
0	30483	85.35	1
0	30484	85.35	1
0	30494	85.4	0
0	30495	85.4	1
0	30496	85.4	1
0	30497	85.4	0
0	30498	85.4	1
0	30499	85.4	1
0	30513	85.45	0
0	30514	85.45	1
0	30515	85.45	1
0	30525	85.5	0
0	30526	85.5	1
0	30527	85.5	1
0	30528	85.5	0
0	30529	85.5	1
0	30530	85.5	1
0	30544	85.55	0
0	30545	85.55	1
0	30546	85.55	1
0	30556	85.6	0
0	30557	85.6	1
0	30558	85.6	1
0	30559	85.6	0
0	30560	85.6	1
0	30561	85.6	1
0	30575	85.65	0
0	30576	85.65	1
0	30577	85.65	1
0	30601	85.7	0
0	30602	85.7	1
0	30603	85.7	1
0	30604	85.7	0
0	30605	85.7	1
0	30606	85.7	1
0	30620	85.75	0
0	30621	85.75	1
0	30622	85.75	1
0	30632	85.8	0
0	30633	85.8	1
0	30634	85.8	1
0	30635	85.8	0
0	30636	85.8	1
0	30637	85.8	1
0	30665	85.85	0
0	30666	85.85	1
0	30667	85.85	1
0	30677	85.9	0
0	30678	85.9	1
0	30679	85.9	1
0	30680	85.9	0
0	30681	85.9	1
0	30682	85.9	1
0	30696	85.95	0
0	30697	85.95	1
0	30698	85.95	1
0	30708	86	0
0	30709	86	1
0	30710	86	1
0	30711	86	0
0	30712	86	1
0	30713	86	1
0	30727	86.05	0
0	30728	86.05	1
0	30729	86.05	1
0	30741	86.1	0
0	30742	86.1	1
0	30743	86.1	1
0	30744	86.1	0
0	30745	86.1	1
0	30746	86.1	1
0	30762	86.15	0
0	30763	86.15	1
0	30764	86.15	1
0	30774	86.2	0
0	30775	86.2	1
0	30776	86.2	1
0	30777	86.2	0
0	30778	86.2	1
0	30779	86.2	1
0	30819	86.25	0
0	30820	86.25	1
0	30821	86.25	1
0	30831	86.3	0
0	30832	86.3	1
0	30833	86.3	1
0	30834	86.3	0
0	30835	86.3	1
0	30836	86.3	1
0	30850	86.35	0
0	30851	86.35	1
0	30852	86.35	1
0	30876	86.4	0
0	30877	86.4	1
0	30878	86.4	1
0	30879	86.4	0
0	30880	86.4	1
0	30881	86.4	1
0	30895	86.45	0
0	30896	86.45	1
0	30897	86.45	1
0	30907	86.5	0
0	30908	86.5	1
0	30909	86.5	1
0	30910	86.5	0
0	30911	86.5	1
0	30912	86.5	1
0	30926	86.55	0
0	30927	86.55	1
0	30928	86.55	1
0	30938	86.6	0
0	30939	86.6	1
0	30940	86.6	1
0	30941	86.6	0
0	30942	86.6	1
0	30943	86.6	1
0	30957	86.65	0
0	30958	86.65	1
0	30959	86.65	1
0	30969	86.7	0
0	30970	86.7	1
0	30971	86.7	1
0	30972	86.7	0
0	30973	86.7	1
0	30974	86.7	1
0	30988	86.75	0
0	30989	86.75	1
0	30990	86.75	1
0	31014	86.8	0
0	31015	86.8	1
0	31016	86.8	1
0	31017	86.8	0
0	31018	86.8	1
0	31019	86.8	1
0	31033	86.85	0
0	31034	86.85	1
0	31035	86.85	1
0	31045	86.9	0
0	31046	86.9	1
0	31047	86.9	1
0	31048	86.9	0
0	31049	86.9	1
0	31050	86.9	1
0	31078	86.95	0
0	31079	86.95	1
0	31080	86.95	1
0	31090	87	0
0	31091	87	1
0	31092	87	1
0	31093	87	0
0	31094	87	1
0	31095	87	1
0	31109	87.05	0
0	31110	87.05	1
0	31111	87.05	1
0	31123	87.1	0
0	31124	87.1	1
0	31125	87.1	1
0	31126	87.1	0
0	31127	87.1	1
0	31128	87.1	1
0	31144	87.15	0
0	31145	87.15	1
0	31146	87.15	1
0	31156	87.2	0
0	31157	87.2	1
0	31158	87.2	1
0	31159	87.2	0
0	31160	87.2	1
0	31161	87.2	1
0	31175	87.25	0
0	31176	87.25	1
0	31177	87.25	1
0	31187	87.3	0
0	31188	87.3	1
0	31189	87.3	1
0	31190	87.3	0
0	31191	87.3	1
0	31192	87.3	1
0	31232	87.35	0
0	31233	87.35	1
0	31234	87.35	1
0	31244	87.4	0
0	31245	87.4	1
0	31246	87.4	1
0	31247	87.4	0
0	31248	87.4	1
0	31249	87.4	1
0	31263	87.45	0
0	31264	87.45	1
0	31265	87.45	1
0	31289	87.5	0
0	31290	87.5	1
0	31291	87.5	1
0	31292	87.5	0
0	31293	87.5	1
0	31294	87.5	1
0	31308	87.55	0
0	31309	87.55	1
0	31310	87.55	1
0	31320	87.6	0
0	31321	87.6	1
0	31322	87.6	1
0	31323	87.6	0
0	31324	87.6	1
0	31325	87.6	1
0	31339	87.65	0
0	31340	87.65	1
0	31341	87.65	1
0	31351	87.7	0
0	31352	87.7	1
0	31353	87.7	1
0	31354	87.7	0
0	31355	87.7	1
0	31356	87.7	1
0	31370	87.75	0
0	31371	87.75	1
0	31372	87.75	1
0	31382	87.8	0
0	31383	87.8	1
0	31384	87.8	1
0	31385	87.8	0
0	31386	87.8	1
0	31387	87.8	1
0	31401	87.85	0
0	31402	87.85	1
0	31403	87.85	1
0	31427	87.9	0
0	31428	87.9	1
0	31429	87.9	1
0	31430	87.9	0
0	31431	87.9	1
0	31432	87.9	1
0	31446	87.95	0
0	31447	87.95	1
0	31448	87.95	1
0	31458	88	0
0	31459	88	1
0	31460	88	1
0	31461	88	0
0	31462	88	1
0	31463	88	1
0	31491	88.05	0
0	31492	88.05	1
0	31493	88.05	1
0	31505	88.1	0
0	31506	88.1	1
0	31507	88.1	1
0	31508	88.1	0
0	31509	88.1	1
0	31510	88.1	1
0	31526	88.15	0
0	31527	88.15	1
0	31528	88.15	1
0	31538	88.2	0
0	31539	88.2	1
0	31540	88.2	1
0	31541	88.2	0
0	31542	88.2	1
0	31543	88.2	1
0	31557	88.25	0
0	31558	88.25	1
0	31559	88.25	1
0	31569	88.3	0
0	31570	88.3	1
0	31571	88.3	1
0	31572	88.3	0
0	31573	88.3	1
0	31574	88.3	1
0	31588	88.35	0
0	31589	88.35	1
0	31590	88.35	1
0	31600	88.4	0
0	31601	88.4	1
0	31602	88.4	1
0	31603	88.4	0
0	31604	88.4	1
0	31605	88.4	1
0	31645	88.45	0
0	31646	88.45	1
0	31647	88.45	1
0	31657	88.5	0
0	31658	88.5	1
0	31659	88.5	1
0	31660	88.5	0
0	31661	88.5	1
0	31662	88.5	1
0	31676	88.55	0
0	31677	88.55	1
0	31678	88.55	1
0	31702	88.6	0
0	31703	88.6	1
0	31704	88.6	1
0	31705	88.6	0
0	31706	88.6	1
0	31707	88.6	1
0	31721	88.65	0
0	31722	88.65	1
0	31723	88.65	1
0	31733	88.7	0
0	31734	88.7	1
0	31735	88.7	1
0	31736	88.7	0
0	31737	88.7	1
0	31738	88.7	1
0	31752	88.75	0
0	31753	88.75	1
0	31754	88.75	1
0	31764	88.8	0
0	31765	88.8	1
0	31766	88.8	1
0	31767	88.8	0
0	31768	88.8	1
0	31769	88.8	1
0	31783	88.85	0
0	31784	88.85	1
0	31785	88.85	1
0	31795	88.9	0
0	31796	88.9	1
0	31797	88.9	1
0	31798	88.9	0
0	31799	88.9	1
0	31800	88.9	1
0	31814	88.95	0
0	31815	88.95	1
0	31816	88.95	1
0	31840	89	0
0	31841	89	1
0	31842	89	1
0	31843	89	0
0	31844	89	1
0	31845	89	1
0	31859	89.05	0
0	31860	89.05	1
0	31861	89.05	1
0	31873	89.1	0
0	31874	89.1	1
0	31875	89.1	1
0	31876	89.1	0
0	31877	89.1	1
0	31878	89.1	1
0	31908	89.15	0
0	31909	89.15	1
0	31910	89.15	1
0	31920	89.2	0
0	31921	89.2	1
0	31922	89.2	1
0	31923	89.2	0
0	31924	89.2	1
0	31925	89.2	1
0	31939	89.25	0
0	31940	89.25	1
0	31941	89.25	1
0	31951	89.3	0
0	31952	89.3	1
0	31953	89.3	1
0	31954	89.3	0
0	31955	89.3	1
0	31956	89.3	1
0	31970	89.35	0
0	31971	89.35	1
0	31972	89.35	1
0	31982	89.4	0
0	31983	89.4	1
0	31984	89.4	1
0	31985	89.4	0
0	31986	89.4	1
0	31987	89.4	1
0	32001	89.45	0
0	32002	89.45	1
0	32003	89.45	1
0	32013	89.5	0
0	32014	89.5	1
0	32015	89.5	1
0	32016	89.5	0
0	32017	89.5	1
0	32018	89.5	1
0	32058	89.55	0
0	32059	89.55	1
0	32060	89.55	1
0	32070	89.6	0
0	32071	89.6	1
0	32072	89.6	1
0	32073	89.6	0
0	32074	89.6	1
0	32075	89.6	1
0	32089	89.65	0
0	32090	89.65	1
0	32091	89.65	1
0	32115	89.7	0
0	32116	89.7	1
0	32117	89.7	1
0	32118	89.7	0
0	32119	89.7	1
0	32120	89.7	1
0	32134	89.75	0
0	32135	89.75	1
0	32136	89.75	1
0	32146	89.8	0
0	32147	89.8	1
0	32148	89.8	1
0	32149	89.8	0
0	32150	89.8	1
0	32151	89.8	1
0	32165	89.85	0
0	32166	89.85	1
0	32167	89.85	1
0	32177	89.9	0
0	32178	89.9	1
0	32179	89.9	1
0	32180	89.9	0
0	32181	89.9	1
0	32182	89.9	1
0	32196	89.95	0
0	32197	89.95	1
0	32198	89.95	1
0	32208	90	0
0	32209	90	1
0	32210	90	1
0	32211	90	0
0	32212	90	1
0	32213	90	1
1	22	0.1	-nan
1	24	0.1	-nan
1	376	1.1	-nan
1	377	1.1	-nan
1	816	2.1	-nan
1	817	2.1	-nan
1	1255	3.1	-nan
1	1256	3.1	-nan
1	1777	4.1	-nan
1	1778	4.1	-nan
1	2210	5.1	-nan
1	2211	5.1	-nan
1	2693	6.1	-nan
1	2694	6.1	-nan
1	3097	7.1	-nan
1	3098	7.1	-nan
1	3532	8.1	-nan
1	3533	8.1	-nan
1	3886	9.1	-nan
1	3887	9.1	-nan
1	4330	10.1	-nan
1	4331	10.1	-nan
1	4667	11.1	-nan
1	4668	11.1	-nan
1	5018	12.1	-nan
1	5019	12.1	-nan
1	5352	13.1	-nan
1	5353	13.1	-nan
1	5699	14.1	-nan
1	5700	14.1	-nan
1	6050	15.1	-nan
1	6051	15.1	-nan
1	6429	16.1	-nan
1	6430	16.1	-nan
1	6763	17.1	-nan
1	6764	17.1	-nan
1	7103	18.1	-nan
1	7104	18.1	-nan
1	7437	19.1	-nan
1	7438	19.1	-nan
1	7777	20.1	-nan
1	7778	20.1	-nan
1	8103	21.1	-nan
1	8104	21.1	-nan
1	8387	22.1	-nan
1	8388	22.1	-nan
1	8671	23.1	-nan
1	8672	23.1	-nan
1	8955	24.1	-nan
1	8956	24.1	-nan
1	9239	25.1	-nan
1	9240	25.1	-nan
1	9523	26.1	-nan
1	9524	26.1	-nan
1	9807	27.1	-nan
1	9808	27.1	-nan
1	10091	28.1	-nan
1	10092	28.1	-nan
1	10375	29.1	-nan
1	10376	29.1	-nan
1	10659	30.1	-nan
1	10660	30.1	-nan
1	10943	31.1	-nan
1	10944	31.1	-nan
1	11227	32.1	-nan
1	11228	32.1	-nan
1	11511	33.1	-nan
1	11512	33.1	-nan
1	11795	34.1	-nan
1	11796	34.1	-nan
1	12079	35.1	-nan
1	12080	35.1	-nan
1	12363	36.1	-nan
1	12364	36.1	-nan
1	12647	37.1	-nan
1	12648	37.1	-nan
1	12931	38.1	-nan
1	12932	38.1	-nan
1	13215	39.1	-nan
1	13216	39.1	-nan
1	13499	40.1	-nan
1	13500	40.1	-nan
1	13783	41.1	-nan
1	13784	41.1	-nan
1	14067	42.1	-nan
1	14068	42.1	-nan
1	14351	43.1	-nan
1	14352	43.1	-nan
1	14635	44.1	-nan
1	14636	44.1	-nan
1	14919	45.1	-nan
1	14920	45.1	-nan
1	15203	46.1	-nan
1	15204	46.1	-nan
1	15487	47.1	-nan
1	15488	47.1	-nan
1	15811	48.1	-nan
1	15812	48.1	-nan
1	16396	49.1	-nan
1	16397	49.1	-nan
1	17001	50.1	-nan
1	17002	50.1	-nan
1	17511	51.1	-nan
1	17512	51.1	-nan
1	17889	52.1	-nan
1	17890	52.1	-nan
1	18281	53.1	-nan
1	18282	53.1	-nan
1	18673	54.1	-nan
1	18674	54.1	-nan
1	19065	55.1	-nan
1	19066	55.1	-nan
1	19433	56.1	-nan
1	19434	56.1	-nan
1	19815	57.1	-nan
1	19816	57.1	-nan
1	20183	58.1	-nan
1	20184	58.1	-nan
1	20565	59.1	-nan
1	20566	59.1	-nan
1	20947	60.1	-nan
1	20948	60.1	-nan
1	21329	61.1	-nan
1	21330	61.1	-nan
1	21697	62.1	-nan
1	21698	62.1	-nan
1	22065	63.1	-nan
1	22066	63.1	-nan
1	22447	64.1	-nan
1	22448	64.1	-nan
1	22829	65.1	-nan
1	22830	65.1	-nan
1	23211	66.1	-nan
1	23212	66.1	-nan
1	23579	67.1	-nan
1	23580	67.1	-nan
1	23961	68.1	-nan
1	23962	68.1	-nan
1	24329	69.1	-nan
1	24330	69.1	-nan
1	24711	70.1	-nan
1	24712	70.1	-nan
1	25093	71.1	-nan
1	25094	71.1	-nan
1	25475	72.1	-nan
1	25476	72.1	-nan
1	25843	73.1	-nan
1	25844	73.1	-nan
1	26211	74.1	-nan
1	26212	74.1	-nan
1	26593	75.1	-nan
1	26594	75.1	-nan
1	26975	76.1	-nan
1	26976	76.1	-nan
1	27357	77.1	-nan
1	27358	77.1	-nan
1	27725	78.1	-nan
1	27726	78.1	-nan
1	28107	79.1	-nan
1	28108	79.1	-nan
1	28475	80.1	-nan
1	28476	80.1	-nan
1	28857	81.1	-nan
1	28858	81.1	-nan
1	29239	82.1	-nan
1	29240	82.1	-nan
1	29621	83.1	-nan
1	29622	83.1	-nan
1	29989	84.1	-nan
1	29990	84.1	-nan
1	30357	85.1	-nan
1	30358	85.1	-nan
1	30739	86.1	-nan
1	30740	86.1	-nan
1	31121	87.1	-nan
1	31122	87.1	-nan
1	31503	88.1	-nan
1	31504	88.1	-nan
1	31871	89.1	-nan
1	31872	89.1	-nan
2	444	1.138133385287	141
2	466	1.151973385287	282
2	911	2.228453385287	423
2	1354	3.278750839471	564
2	1392	3.306430839471	705
2	1426	3.320270839471	846
2	1673	3.878453385287	987
2	1683	3.892293385287	1128
2	1713	3.906133385287	1269
2	1723	3.919973385287	1410
2	2158	4.988133385287	1551
2	2191	5.001973510055	1692
2	2381	5.456430839471	1833
2	2391	5.470270839471	1974
2	2676	6.078628937028	2115
2	2686	6.092470075579	2256
2	2723	6.106311208894	2397
2	2985	6.778723251685	2538
2	4071	9.492590839471	2679
2	4102	9.506430839471	2820
2	4114	9.547950839471	2961
2	4133	9.561790839471	3102
2	16208	48.892522682608	3243
2	16238	48.906361030699	3384
2	16248	48.920199348906	3525
2	16256	48.947875900361	3666
2	16279	48.975552346649	3807
2	16286	48.989390533485	3948
2	16316	49.003228697823	4089
2	16326	49.01706684096	4230
2	16336	49.030904964205	4371
2	16346	49.04474306887	4512
2	16368	49.058581156276	4653
2	16378	49.07241922774	4794
2	16388	49.086257284577	4935
2	16422	49.100095328099	5076
2	16432	49.113933359607	5217
2	16442	49.127771380393	5358
2	16449	49.141609391734	5499
2	16471	49.155447394894	5640
2	16481	49.169285391115	5781
2	16491	49.183123381623	5922
2	16501	49.19696136762	6063
2	16531	49.210799350283	6204
2	16541	49.224637330766	6345
2	16551	49.238475310196	6486
2	16575	49.25231328967	6627
2	16586	49.266151270256	6768
2	16596	49.279989252993	6909
2	16606	49.293827238887	7050
2	16633	49.307665228913	7191
2	16643	49.321503224013	7332
2	16653	49.335341225094	7473
2	16663	49.349179233032	7614
2	16686	49.376855272804	7755
2	16696	49.390693306218	7896
2	16726	49.404531349645	8037
2	16736	49.41836940379	8178
2	16746	49.432207469322	8319
2	16753	49.446045546877	8460
2	16772	49.45988363706	8601
2	16782	49.473721740439	8742
2	16792	49.487559857553	8883
2	16822	49.501397988909	9024
2	17174	50.478383411122	9165
2	17184	50.492223272718	9306
2	17214	50.506063134604	9447
2	17224	50.51990299678	9588
2	17234	50.533742859245	9729
2	17244	50.547582722	9870
2	17266	50.561422585044	10011
2	17276	50.575262448376	10152
2	17286	50.589102311996	10293
2	17318	50.602942175903	10434
2	17335	50.616782040098	10575
2	17345	50.630621904579	10716
2	17708	51.578362773191	10857
2	17932	52.128353717936	10998
2	18356	53.22833785899	11139
2	18780	54.328324658719	11280
2	19200	55.42831766021	11421
2	19613	56.52831766021	11562
2	20026	57.62831766021	11703
2	20237	58.17831766021	11844
2	20650	59.27831766021	11985
2	21063	60.37831766021	12126
2	21476	61.47831766021	12267
2	21889	62.57831766021	12408
2	22107	63.12831766021	12549
2	22520	64.22831766021	12690
2	22933	65.32831766021	12831
2	23346	66.42831766021	12972
2	23759	67.52831766021	13113
2	24172	68.62831766021	13254
2	24383	69.17831766021	13395
2	24796	70.27831766021	13536
2	25209	71.37831766021	13677
2	25622	72.47831766021	13818
2	26035	73.57831766021	13959
2	26253	74.12831766021	14100
2	26666	75.22831766021	14241
2	27079	76.32831766021	14382
2	27492	77.42831766021	14523
2	27905	78.52831766021	14664
2	28318	79.62831766021	14805
2	28529	80.17831766021	14946
2	28942	81.27831766021	15087
2	29355	82.37831766021	15228
2	29768	83.47831766021	15369
2	30181	84.57831766021	15510
2	30399	85.12831766021	15651
2	30812	86.22831766021	15792
2	31225	87.32831766021	15933
2	31638	88.42831766021	16074
2	32051	89.52831766021	16215
3	444	1.138133385287	141
3	466	1.151973385287	282
3	911	2.228453385287	423
3	1354	3.278750839471	564
3	1392	3.306430839471	705
3	1426	3.320270839471	846
3	1673	3.878453385287	987
3	1683	3.892293385287	1128
3	1713	3.906133385287	1269
3	1723	3.919973385287	1410
3	2158	4.988133385287	1551
3	2191	5.001973510055	1692
3	2381	5.456430839471	1833
3	2391	5.470270839471	1974
3	2676	6.078628937028	2115
3	2686	6.092470075579	2256
3	2723	6.106311208894	2397
3	2985	6.778723251685	2538
3	4071	9.492590839471	2679
3	4102	9.506430839471	2820
3	4114	9.547950839471	2961
3	4133	9.561790839471	3102
3	16208	48.892522682608	3243
3	16238	48.906361030699	3384
3	16248	48.920199348906	3525
3	16256	48.947875900361	3666
3	16279	48.975552346649	3807
3	16286	48.989390533485	3948
3	16316	49.003228697823	4089
3	16326	49.01706684096	4230
3	16336	49.030904964205	4371
3	16346	49.04474306887	4512
3	16368	49.058581156276	4653
3	16378	49.07241922774	4794
3	16388	49.086257284577	4935
3	16422	49.100095328099	5076
3	16432	49.113933359607	5217
3	16442	49.127771380393	5358
3	16449	49.141609391734	5499
3	16471	49.155447394894	5640
3	16481	49.169285391115	5781
3	16491	49.183123381623	5922
3	16501	49.19696136762	6063
3	16531	49.210799350283	6204
3	16541	49.224637330766	6345
3	16551	49.238475310196	6486
3	16575	49.25231328967	6627
3	16586	49.266151270256	6768
3	16596	49.279989252993	6909
3	16606	49.293827238887	7050
3	16633	49.307665228913	7191
3	16643	49.321503224013	7332
3	16653	49.335341225094	7473
3	16663	49.349179233032	7614
3	16686	49.376855272804	7755
3	16696	49.390693306218	7896
3	16726	49.404531349645	8037
3	16736	49.41836940379	8178
3	16746	49.432207469322	8319
3	16753	49.446045546877	8460
3	16772	49.45988363706	8601
3	16782	49.473721740439	8742
3	16792	49.487559857553	8883
3	16822	49.501397988909	9024
3	17174	50.478383411122	9165
3	17184	50.492223272718	9306
3	17214	50.506063134604	9447
3	17224	50.51990299678	9588
3	17234	50.533742859245	9729
3	17244	50.547582722	9870
3	17266	50.561422585044	10011
3	17276	50.575262448376	10152
3	17286	50.589102311996	10293
3	17318	50.602942175903	10434
3	17335	50.616782040098	10575
3	17345	50.630621904579	10716
3	17708	51.578362773191	10857
3	17932	52.128353717936	10998
3	18356	53.22833785899	11139
3	18780	54.328324658719	11280
3	19200	55.42831766021	11421
3	19613	56.52831766021	11562
3	20026	57.62831766021	11703
3	20237	58.17831766021	11844
3	20650	59.27831766021	11985
3	21063	60.37831766021	12126
3	21476	61.47831766021	12267
3	21889	62.57831766021	12408
3	22107	63.12831766021	12549
3	22520	64.22831766021	12690
3	22933	65.32831766021	12831
3	23346	66.42831766021	12972
3	23759	67.52831766021	13113
3	24172	68.62831766021	13254
3	24383	69.17831766021	13395
3	24796	70.27831766021	13536
3	25209	71.37831766021	13677
3	25622	72.47831766021	13818
3	26035	73.57831766021	13959
3	26253	74.12831766021	14100
3	26666	75.22831766021	14241
3	27079	76.32831766021	14382
3	27492	77.42831766021	14523
3	27905	78.52831766021	14664
3	28318	79.62831766021	14805
3	28529	80.17831766021	14946
3	28942	81.27831766021	15087
3	29355	82.37831766021	15228
3	29768	83.47831766021	15369
3	30181	84.57831766021	15510
3	30399	85.12831766021	15651
3	30812	86.22831766021	15792
3	31225	87.32831766021	15933
3	31638	88.42831766021	16074
3	32051	89.52831766021	16215

