version 2
run D_08_10-0-20191014-22:37:37-15551
attr configname D_08_10
attr datetime 20191014-22:37:37
attr experiment D_08_10
attr inifile SimV3.ini
attr iterationvars ""
attr iterationvarsf ""
attr measurement ""
attr network NetworkTormV2
attr processid 15551
attr repetition 0
attr replication #0
attr resultdir results
attr runnumber 0
attr seedset 0
param **.mobility.traceFile "\"pathsGW/D.movements\""
param **.numNodes 11
param **.application.dataGenerationInterval 1s
param **.application.dataSizeInBytes 10
param **.application.ttl 999999s
param **application.nodesThatGen false
param **application.nodesGenMsg "\"\""
param **application.startMultipleMsg false
param **application.numMultipleMsg 100
param **application.hopsListSize 50
param **.application.endGeneratingMsg 99s
param **.routingLayer "\"RoutingLqeGw\""
param **.routing.maximumCacheSize 5000byte
param **.routing.maximumHopCount 25
param **.routing.useTTL false
param **.routing.waitBFsend 0.5
param **.routing.max_age 999999s
param **.routing.gateway_list "\"\""
param **.routing.actual_gateway "\"\""
param **.routing.gwCheckPeriod 5s
param **.neighboring.resetGPeriod 10s
param **.wirelessIfc.wirelessRange 40m
param **.numNodes 2
param **.application.usedRNG 1
param **.application.dataGenerationInterval 1s
param **.application.dataSizeInBytes 10
param **.application.ttl 999999s
param **application.destinationAddr "\"Wf:00:00:00:00:02\""
param **application.destinationBTAddr "\"Bt:00:00:00:00:02\""
param **application.nodesThatGen true
param **application.nodesGenMsg "\"0\""
param **application.startMultipleMsg true
param **application.numMultipleMsg 100
param **application.hopsListSize 50
param **.application.endGeneratingMsg 999999s
param **.routingLayer "\"RoutingLqeGw\""
param **.routing.maximumCacheSize 5000byte
param **.routing.maximumHopCount 25
param **.routing.useTTL false
param **.routing.waitBFsend 0.5
param **.routing.max_age 999999s
param **.routing.gateway_list "\"\""
param **.routing.actual_gateway "\"\""
param **.routing.gwCheckPeriod 5s
param **.neighboring.antiEntropyInterval 500ms
param **.neighboring.maximumRandomBackoffDuration 1s
param **.neighboring.delayPerDataMsg 0.1
param **neighboring.usedRNG 2
param **.neighboring.GWAddr "\"Wf:00:00:00:00:02\""
param **.neighboring.sendWifiFirst true
param **.neighboring.maxLengthGraph 20
param **.neighboring.max_age 999999s
param **.neighboring.max_absent_time 1s
param **.wirelessIfc.wirelessRange 40m
param **.wirelessIfc.neighbourScanInterval 50ms
param **.wirelessIfc.bandwidthBitRate 100000bps
param **.wirelessIfc.wirelessHeaderSize 32byte
param **.wirelessIfc.minSSI -90
param **.wirelessIfc.limitQueueTime 400ms
param **.wirelessIfc.my_limit_rate 0bps
param **.bluetoothIfc.wirelessRange 40m
param **.bluetoothIfc.neighbourScanInterval 100ms
param **.bluetoothIfc.bandwidthBitRate 100000bps
param **.bluetoothIfc.wirelessHeaderSize 16byte
param **.bluetoothIfc.minSSI -90
param **.mobilityType "\"BonnMotionMobility\""
param **.mobility.traceFile "\"paths/Moves2.movements\""
param **.mobility.is3D false
param **.mobility.nodeId -1

vector 0 NetworkTormV2 neighbourhoodSize:vector ETV
attr source neighbourhoodSize
vector 1 NetworkTormV2 deliveryRatio:vector ETV
attr source sum(totalDataBytesReceived)/sum(totalDataBytesReceivableByAllNodes)
vector 2 NetworkTormV2 dataBytesReceivedSum:vector ETV
attr source sum(dataBytesReceived)
vector 3 NetworkTormV2 totalBytesReceivedSum:vector ETV
attr source sum(totalBytesReceived)
0	34	0.05	3
0	35	0.05	5
0	36	0.05	3
0	37	0.05	5
0	38	0.05	8
0	39	0.05	5
0	40	0.05	3
0	41	0.05	5
0	42	0.05	3
0	43	0.05	1
0	44	0.05	1
0	134	0.1	3
0	136	0.1	5
0	138	0.1	3
0	140	0.1	5
0	142	0.1	8
0	144	0.1	5
0	146	0.1	3
0	148	0.1	5
0	150	0.1	3
0	152	0.1	1
0	154	0.1	1
0	158	0.1	3
0	159	0.1	5
0	160	0.1	3
0	161	0.1	5
0	162	0.1	8
0	163	0.1	5
0	164	0.1	3
0	165	0.1	5
0	166	0.1	3
0	167	0.1	1
0	168	0.1	1
0	290	0.15	3
0	291	0.15	5
0	292	0.15	3
0	293	0.15	5
0	294	0.15	8
0	295	0.15	5
0	296	0.15	3
0	297	0.15	5
0	298	0.15	3
0	299	0.15	1
0	300	0.15	1
0	389	0.2	3
0	390	0.2	5
0	391	0.2	3
0	392	0.2	5
0	393	0.2	8
0	394	0.2	5
0	395	0.2	3
0	396	0.2	5
0	397	0.2	3
0	398	0.2	1
0	399	0.2	1
0	403	0.2	3
0	404	0.2	5
0	405	0.2	3
0	406	0.2	5
0	407	0.2	8
0	408	0.2	5
0	409	0.2	3
0	410	0.2	5
0	411	0.2	3
0	412	0.2	1
0	413	0.2	1
0	524	0.25	3
0	525	0.25	5
0	526	0.25	3
0	527	0.25	5
0	528	0.25	8
0	529	0.25	5
0	530	0.25	3
0	531	0.25	5
0	532	0.25	3
0	533	0.25	1
0	534	0.25	1
0	623	0.3	3
0	624	0.3	5
0	625	0.3	3
0	626	0.3	5
0	627	0.3	8
0	628	0.3	5
0	629	0.3	3
0	630	0.3	5
0	631	0.3	3
0	632	0.3	1
0	633	0.3	1
0	637	0.3	3
0	638	0.3	5
0	639	0.3	3
0	640	0.3	5
0	641	0.3	8
0	642	0.3	5
0	643	0.3	3
0	644	0.3	5
0	645	0.3	3
0	646	0.3	1
0	647	0.3	1
0	758	0.35	3
0	759	0.35	5
0	760	0.35	3
0	761	0.35	5
0	762	0.35	8
0	763	0.35	5
0	764	0.35	3
0	765	0.35	5
0	766	0.35	3
0	767	0.35	1
0	768	0.35	1
0	857	0.4	3
0	858	0.4	5
0	859	0.4	3
0	860	0.4	5
0	861	0.4	8
0	862	0.4	5
0	863	0.4	3
0	864	0.4	5
0	865	0.4	3
0	866	0.4	1
0	867	0.4	1
0	871	0.4	3
0	872	0.4	5
0	873	0.4	3
0	874	0.4	5
0	875	0.4	8
0	876	0.4	5
0	877	0.4	3
0	878	0.4	5
0	879	0.4	3
0	880	0.4	1
0	881	0.4	1
0	992	0.45	3
0	993	0.45	5
0	994	0.45	3
0	995	0.45	5
0	996	0.45	8
0	997	0.45	5
0	998	0.45	3
0	999	0.45	5
0	1000	0.45	3
0	1001	0.45	1
0	1002	0.45	1
0	1091	0.5	3
0	1092	0.5	5
0	1093	0.5	3
0	1094	0.5	5
0	1095	0.5	8
0	1096	0.5	5
0	1097	0.5	3
0	1098	0.5	5
0	1099	0.5	3
0	1100	0.5	1
0	1101	0.5	1
0	1105	0.5	3
0	1106	0.5	5
0	1107	0.5	3
0	1108	0.5	5
0	1109	0.5	8
0	1110	0.5	5
0	1111	0.5	3
0	1112	0.5	5
0	1113	0.5	3
0	1114	0.5	1
0	1115	0.5	1
0	1226	0.55	3
0	1227	0.55	5
0	1228	0.55	3
0	1229	0.55	5
0	1230	0.55	8
0	1231	0.55	5
0	1232	0.55	3
0	1233	0.55	5
0	1234	0.55	3
0	1235	0.55	1
0	1236	0.55	1
0	1325	0.6	3
0	1326	0.6	5
0	1327	0.6	3
0	1328	0.6	5
0	1329	0.6	8
0	1330	0.6	5
0	1331	0.6	3
0	1332	0.6	5
0	1333	0.6	3
0	1334	0.6	1
0	1335	0.6	1
0	1339	0.6	3
0	1340	0.6	5
0	1341	0.6	3
0	1342	0.6	5
0	1343	0.6	8
0	1344	0.6	5
0	1345	0.6	3
0	1346	0.6	5
0	1347	0.6	3
0	1348	0.6	1
0	1349	0.6	1
0	1460	0.65	3
0	1461	0.65	5
0	1462	0.65	3
0	1463	0.65	5
0	1464	0.65	8
0	1465	0.65	5
0	1466	0.65	3
0	1467	0.65	5
0	1468	0.65	3
0	1469	0.65	1
0	1470	0.65	1
0	1559	0.7	3
0	1560	0.7	5
0	1561	0.7	3
0	1562	0.7	5
0	1563	0.7	8
0	1564	0.7	5
0	1565	0.7	3
0	1566	0.7	5
0	1567	0.7	3
0	1568	0.7	1
0	1569	0.7	1
0	1573	0.7	3
0	1574	0.7	5
0	1575	0.7	3
0	1576	0.7	5
0	1577	0.7	8
0	1578	0.7	5
0	1579	0.7	3
0	1580	0.7	5
0	1581	0.7	3
0	1582	0.7	1
0	1583	0.7	1
0	1694	0.75	3
0	1695	0.75	5
0	1696	0.75	3
0	1697	0.75	5
0	1698	0.75	8
0	1699	0.75	5
0	1700	0.75	3
0	1701	0.75	5
0	1702	0.75	3
0	1703	0.75	1
0	1704	0.75	1
0	1793	0.8	3
0	1794	0.8	5
0	1795	0.8	3
0	1796	0.8	5
0	1797	0.8	8
0	1798	0.8	5
0	1799	0.8	3
0	1800	0.8	5
0	1801	0.8	3
0	1802	0.8	1
0	1803	0.8	1
0	1807	0.8	3
0	1808	0.8	5
0	1809	0.8	3
0	1810	0.8	5
0	1811	0.8	8
0	1812	0.8	5
0	1813	0.8	3
0	1814	0.8	5
0	1815	0.8	3
0	1816	0.8	1
0	1817	0.8	1
0	1928	0.85	3
0	1929	0.85	5
0	1930	0.85	3
0	1931	0.85	5
0	1932	0.85	8
0	1933	0.85	5
0	1934	0.85	3
0	1935	0.85	5
0	1936	0.85	3
0	1937	0.85	1
0	1938	0.85	1
0	2027	0.9	3
0	2028	0.9	5
0	2029	0.9	3
0	2030	0.9	5
0	2031	0.9	8
0	2032	0.9	5
0	2033	0.9	3
0	2034	0.9	5
0	2035	0.9	3
0	2036	0.9	1
0	2037	0.9	1
0	2041	0.9	3
0	2042	0.9	5
0	2043	0.9	3
0	2044	0.9	5
0	2045	0.9	8
0	2046	0.9	5
0	2047	0.9	3
0	2048	0.9	5
0	2049	0.9	3
0	2050	0.9	1
0	2051	0.9	1
0	2162	0.95	3
0	2163	0.95	5
0	2164	0.95	3
0	2165	0.95	5
0	2166	0.95	8
0	2167	0.95	5
0	2168	0.95	3
0	2169	0.95	5
0	2170	0.95	3
0	2171	0.95	1
0	2172	0.95	1
0	2261	1	3
0	2262	1	5
0	2263	1	3
0	2264	1	5
0	2265	1	8
0	2266	1	5
0	2267	1	3
0	2268	1	5
0	2269	1	3
0	2270	1	1
0	2271	1	1
0	2275	1	3
0	2276	1	5
0	2277	1	3
0	2278	1	5
0	2279	1	8
0	2280	1	5
0	2281	1	3
0	2282	1	5
0	2283	1	3
0	2284	1	1
0	2285	1	1
0	2396	1.05	3
0	2397	1.05	5
0	2398	1.05	3
0	2399	1.05	5
0	2400	1.05	8
0	2401	1.05	5
0	2402	1.05	3
0	2403	1.05	5
0	2404	1.05	3
0	2405	1.05	1
0	2406	1.05	1
0	2506	1.1	3
0	2507	1.1	5
0	2508	1.1	3
0	2509	1.1	5
0	2510	1.1	8
0	2511	1.1	5
0	2512	1.1	3
0	2513	1.1	5
0	2514	1.1	3
0	2515	1.1	1
0	2516	1.1	1
0	2520	1.1	3
0	2521	1.1	5
0	2522	1.1	3
0	2523	1.1	5
0	2524	1.1	8
0	2525	1.1	5
0	2526	1.1	3
0	2527	1.1	5
0	2528	1.1	3
0	2529	1.1	1
0	2530	1.1	1
0	3102	1.15	3
0	3103	1.15	5
0	3104	1.15	3
0	3105	1.15	5
0	3106	1.15	8
0	3107	1.15	5
0	3108	1.15	3
0	3109	1.15	5
0	3110	1.15	3
0	3111	1.15	1
0	3112	1.15	1
0	3519	1.2	3
0	3520	1.2	5
0	3521	1.2	3
0	3522	1.2	5
0	3523	1.2	8
0	3524	1.2	5
0	3525	1.2	3
0	3526	1.2	5
0	3527	1.2	3
0	3528	1.2	1
0	3529	1.2	1
0	3533	1.2	3
0	3534	1.2	5
0	3535	1.2	3
0	3536	1.2	5
0	3537	1.2	8
0	3538	1.2	5
0	3539	1.2	3
0	3540	1.2	5
0	3541	1.2	3
0	3542	1.2	1
0	3543	1.2	1
0	3738	1.25	3
0	3739	1.25	5
0	3740	1.25	3
0	3741	1.25	5
0	3742	1.25	8
0	3743	1.25	5
0	3744	1.25	3
0	3745	1.25	5
0	3746	1.25	3
0	3747	1.25	1
0	3748	1.25	1
0	3855	1.3	3
0	3856	1.3	5
0	3857	1.3	3
0	3858	1.3	5
0	3859	1.3	8
0	3860	1.3	5
0	3861	1.3	3
0	3862	1.3	5
0	3863	1.3	3
0	3864	1.3	1
0	3865	1.3	1
0	3869	1.3	3
0	3870	1.3	5
0	3871	1.3	3
0	3872	1.3	5
0	3873	1.3	8
0	3874	1.3	5
0	3875	1.3	3
0	3876	1.3	5
0	3877	1.3	3
0	3878	1.3	1
0	3879	1.3	1
0	3990	1.35	3
0	3991	1.35	5
0	3992	1.35	3
0	3993	1.35	5
0	3994	1.35	8
0	3995	1.35	5
0	3996	1.35	3
0	3997	1.35	5
0	3998	1.35	3
0	3999	1.35	1
0	4000	1.35	1
0	4089	1.4	3
0	4090	1.4	5
0	4091	1.4	3
0	4092	1.4	5
0	4093	1.4	8
0	4094	1.4	5
0	4095	1.4	3
0	4096	1.4	5
0	4097	1.4	3
0	4098	1.4	1
0	4099	1.4	1
0	4103	1.4	3
0	4104	1.4	5
0	4105	1.4	3
0	4106	1.4	5
0	4107	1.4	8
0	4108	1.4	5
0	4109	1.4	3
0	4110	1.4	5
0	4111	1.4	3
0	4112	1.4	1
0	4113	1.4	1
0	4224	1.45	3
0	4225	1.45	5
0	4226	1.45	3
0	4227	1.45	5
0	4228	1.45	8
0	4229	1.45	5
0	4230	1.45	3
0	4231	1.45	5
0	4232	1.45	3
0	4233	1.45	1
0	4234	1.45	1
0	4323	1.5	3
0	4324	1.5	5
0	4325	1.5	3
0	4326	1.5	5
0	4327	1.5	8
0	4328	1.5	5
0	4329	1.5	3
0	4330	1.5	5
0	4331	1.5	3
0	4332	1.5	1
0	4333	1.5	1
0	4337	1.5	3
0	4338	1.5	5
0	4339	1.5	3
0	4340	1.5	5
0	4341	1.5	8
0	4342	1.5	5
0	4343	1.5	3
0	4344	1.5	5
0	4345	1.5	3
0	4346	1.5	1
0	4347	1.5	1
0	4458	1.55	3
0	4459	1.55	5
0	4460	1.55	3
0	4461	1.55	5
0	4462	1.55	8
0	4463	1.55	5
0	4464	1.55	3
0	4465	1.55	5
0	4466	1.55	3
0	4467	1.55	1
0	4468	1.55	1
0	4557	1.6	3
0	4558	1.6	5
0	4559	1.6	3
0	4560	1.6	5
0	4561	1.6	8
0	4562	1.6	5
0	4563	1.6	3
0	4564	1.6	5
0	4565	1.6	3
0	4566	1.6	1
0	4567	1.6	1
0	4571	1.6	3
0	4572	1.6	5
0	4573	1.6	3
0	4574	1.6	5
0	4575	1.6	8
0	4576	1.6	5
0	4577	1.6	3
0	4578	1.6	5
0	4579	1.6	3
0	4580	1.6	1
0	4581	1.6	1
0	4692	1.65	3
0	4693	1.65	5
0	4694	1.65	3
0	4695	1.65	5
0	4696	1.65	8
0	4697	1.65	5
0	4698	1.65	3
0	4699	1.65	5
0	4700	1.65	3
0	4701	1.65	1
0	4702	1.65	1
0	5173	1.7	3
0	5174	1.7	5
0	5175	1.7	3
0	5176	1.7	5
0	5177	1.7	8
0	5178	1.7	5
0	5179	1.7	3
0	5180	1.7	5
0	5181	1.7	3
0	5182	1.7	1
0	5183	1.7	1
0	5187	1.7	3
0	5188	1.7	5
0	5189	1.7	3
0	5190	1.7	5
0	5191	1.7	8
0	5192	1.7	5
0	5193	1.7	3
0	5194	1.7	5
0	5195	1.7	3
0	5196	1.7	1
0	5197	1.7	1
0	5560	1.75	3
0	5561	1.75	5
0	5562	1.75	3
0	5563	1.75	5
0	5564	1.75	8
0	5565	1.75	5
0	5566	1.75	3
0	5567	1.75	5
0	5568	1.75	3
0	5569	1.75	1
0	5570	1.75	1
0	5755	1.8	3
0	5756	1.8	5
0	5757	1.8	3
0	5758	1.8	5
0	5759	1.8	8
0	5760	1.8	5
0	5761	1.8	3
0	5762	1.8	5
0	5763	1.8	3
0	5764	1.8	1
0	5765	1.8	1
0	5769	1.8	3
0	5770	1.8	5
0	5771	1.8	3
0	5772	1.8	5
0	5773	1.8	8
0	5774	1.8	5
0	5775	1.8	3
0	5776	1.8	5
0	5777	1.8	3
0	5778	1.8	1
0	5779	1.8	1
0	5890	1.85	3
0	5891	1.85	5
0	5892	1.85	3
0	5893	1.85	5
0	5894	1.85	8
0	5895	1.85	5
0	5896	1.85	3
0	5897	1.85	5
0	5898	1.85	3
0	5899	1.85	1
0	5900	1.85	1
0	6012	1.9	3
0	6013	1.9	5
0	6014	1.9	3
0	6015	1.9	5
0	6016	1.9	8
0	6017	1.9	5
0	6018	1.9	3
0	6019	1.9	5
0	6020	1.9	3
0	6021	1.9	1
0	6022	1.9	1
0	6026	1.9	3
0	6027	1.9	5
0	6028	1.9	3
0	6029	1.9	5
0	6030	1.9	8
0	6031	1.9	5
0	6032	1.9	3
0	6033	1.9	5
0	6034	1.9	3
0	6035	1.9	1
0	6036	1.9	1
0	6147	1.95	3
0	6148	1.95	5
0	6149	1.95	3
0	6150	1.95	5
0	6151	1.95	8
0	6152	1.95	5
0	6153	1.95	3
0	6154	1.95	5
0	6155	1.95	3
0	6156	1.95	1
0	6157	1.95	1
0	6246	2	3
0	6247	2	5
0	6248	2	3
0	6249	2	5
0	6250	2	8
0	6251	2	5
0	6252	2	3
0	6253	2	5
0	6254	2	3
0	6255	2	1
0	6256	2	1
0	6260	2	3
0	6261	2	5
0	6262	2	3
0	6263	2	5
0	6264	2	8
0	6265	2	5
0	6266	2	3
0	6267	2	5
0	6268	2	3
0	6269	2	1
0	6270	2	1
0	6381	2.05	3
0	6382	2.05	5
0	6383	2.05	3
0	6384	2.05	5
0	6385	2.05	8
0	6386	2.05	5
0	6387	2.05	3
0	6388	2.05	5
0	6389	2.05	3
0	6390	2.05	1
0	6391	2.05	1
0	6491	2.1	3
0	6492	2.1	5
0	6493	2.1	3
0	6494	2.1	5
0	6495	2.1	8
0	6496	2.1	5
0	6497	2.1	3
0	6498	2.1	5
0	6499	2.1	3
0	6500	2.1	1
0	6501	2.1	1
0	6505	2.1	3
0	6506	2.1	5
0	6507	2.1	3
0	6508	2.1	5
0	6509	2.1	8
0	6510	2.1	5
0	6511	2.1	3
0	6512	2.1	5
0	6513	2.1	3
0	6514	2.1	1
0	6515	2.1	1
0	6637	2.15	3
0	6638	2.15	5
0	6639	2.15	3
0	6640	2.15	5
0	6641	2.15	8
0	6642	2.15	5
0	6643	2.15	3
0	6644	2.15	5
0	6645	2.15	3
0	6646	2.15	1
0	6647	2.15	1
0	6736	2.2	3
0	6737	2.2	5
0	6738	2.2	3
0	6739	2.2	5
0	6740	2.2	8
0	6741	2.2	5
0	6742	2.2	3
0	6743	2.2	5
0	6744	2.2	3
0	6745	2.2	1
0	6746	2.2	1
0	6750	2.2	3
0	6751	2.2	5
0	6752	2.2	3
0	6753	2.2	5
0	6754	2.2	8
0	6755	2.2	5
0	6756	2.2	3
0	6757	2.2	5
0	6758	2.2	3
0	6759	2.2	1
0	6760	2.2	1
0	7278	2.25	3
0	7279	2.25	5
0	7280	2.25	3
0	7281	2.25	5
0	7282	2.25	8
0	7283	2.25	5
0	7284	2.25	3
0	7285	2.25	5
0	7286	2.25	3
0	7287	2.25	1
0	7288	2.25	1
0	7587	2.3	3
0	7588	2.3	5
0	7589	2.3	3
0	7590	2.3	5
0	7591	2.3	8
0	7592	2.3	5
0	7593	2.3	3
0	7594	2.3	5
0	7595	2.3	3
0	7596	2.3	1
0	7597	2.3	1
0	7601	2.3	3
0	7602	2.3	5
0	7603	2.3	3
0	7604	2.3	5
0	7605	2.3	8
0	7606	2.3	5
0	7607	2.3	3
0	7608	2.3	5
0	7609	2.3	3
0	7610	2.3	1
0	7611	2.3	1
0	7758	2.35	3
0	7759	2.35	5
0	7760	2.35	3
0	7761	2.35	5
0	7762	2.35	8
0	7763	2.35	5
0	7764	2.35	3
0	7765	2.35	5
0	7766	2.35	3
0	7767	2.35	1
0	7768	2.35	1
0	7948	2.4	3
0	7949	2.4	5
0	7950	2.4	3
0	7951	2.4	5
0	7952	2.4	8
0	7953	2.4	5
0	7954	2.4	3
0	7955	2.4	5
0	7956	2.4	3
0	7957	2.4	1
0	7958	2.4	1
0	7962	2.4	3
0	7963	2.4	5
0	7964	2.4	3
0	7965	2.4	5
0	7966	2.4	8
0	7967	2.4	5
0	7968	2.4	3
0	7969	2.4	5
0	7970	2.4	3
0	7971	2.4	1
0	7972	2.4	1
0	8106	2.45	3
0	8107	2.45	5
0	8108	2.45	3
0	8109	2.45	5
0	8110	2.45	8
0	8111	2.45	5
0	8112	2.45	3
0	8113	2.45	5
0	8114	2.45	3
0	8115	2.45	1
0	8116	2.45	1
0	8205	2.5	3
0	8206	2.5	5
0	8207	2.5	3
0	8208	2.5	5
0	8209	2.5	8
0	8210	2.5	5
0	8211	2.5	3
0	8212	2.5	5
0	8213	2.5	3
0	8214	2.5	1
0	8215	2.5	1
0	8219	2.5	3
0	8220	2.5	5
0	8221	2.5	3
0	8222	2.5	5
0	8223	2.5	8
0	8224	2.5	5
0	8225	2.5	3
0	8226	2.5	5
0	8227	2.5	3
0	8228	2.5	1
0	8229	2.5	1
0	8340	2.55	3
0	8341	2.55	5
0	8342	2.55	3
0	8343	2.55	5
0	8344	2.55	8
0	8345	2.55	5
0	8346	2.55	3
0	8347	2.55	5
0	8348	2.55	3
0	8349	2.55	1
0	8350	2.55	1
0	8439	2.6	3
0	8440	2.6	5
0	8441	2.6	3
0	8442	2.6	5
0	8443	2.6	8
0	8444	2.6	5
0	8445	2.6	3
0	8446	2.6	5
0	8447	2.6	3
0	8448	2.6	1
0	8449	2.6	1
0	8453	2.6	3
0	8454	2.6	5
0	8455	2.6	3
0	8456	2.6	5
0	8457	2.6	8
0	8458	2.6	5
0	8459	2.6	3
0	8460	2.6	5
0	8461	2.6	3
0	8462	2.6	1
0	8463	2.6	1
0	8574	2.65	3
0	8575	2.65	5
0	8576	2.65	3
0	8577	2.65	5
0	8578	2.65	8
0	8579	2.65	5
0	8580	2.65	3
0	8581	2.65	5
0	8582	2.65	3
0	8583	2.65	1
0	8584	2.65	1
0	8673	2.7	3
0	8674	2.7	5
0	8675	2.7	3
0	8676	2.7	5
0	8677	2.7	8
0	8678	2.7	5
0	8679	2.7	3
0	8680	2.7	5
0	8681	2.7	3
0	8682	2.7	1
0	8683	2.7	1
0	8687	2.7	3
0	8688	2.7	5
0	8689	2.7	3
0	8690	2.7	5
0	8691	2.7	8
0	8692	2.7	5
0	8693	2.7	3
0	8694	2.7	5
0	8695	2.7	3
0	8696	2.7	1
0	8697	2.7	1
0	8853	2.75	3
0	8854	2.75	5
0	8855	2.75	3
0	8856	2.75	5
0	8857	2.75	8
0	8858	2.75	5
0	8859	2.75	3
0	8860	2.75	5
0	8861	2.75	3
0	8862	2.75	1
0	8863	2.75	1
0	9345	2.8	3
0	9346	2.8	5
0	9347	2.8	3
0	9348	2.8	5
0	9349	2.8	8
0	9350	2.8	5
0	9351	2.8	3
0	9352	2.8	5
0	9353	2.8	3
0	9354	2.8	1
0	9355	2.8	1
0	9359	2.8	3
0	9360	2.8	5
0	9361	2.8	3
0	9362	2.8	5
0	9363	2.8	8
0	9364	2.8	5
0	9365	2.8	3
0	9366	2.8	5
0	9367	2.8	3
0	9368	2.8	1
0	9369	2.8	1
0	9642	2.85	3
0	9643	2.85	5
0	9644	2.85	3
0	9645	2.85	5
0	9646	2.85	8
0	9647	2.85	5
0	9648	2.85	3
0	9649	2.85	5
0	9650	2.85	3
0	9651	2.85	1
0	9652	2.85	1
0	9741	2.9	3
0	9742	2.9	5
0	9743	2.9	3
0	9744	2.9	5
0	9745	2.9	8
0	9746	2.9	5
0	9747	2.9	3
0	9748	2.9	5
0	9749	2.9	3
0	9750	2.9	1
0	9751	2.9	1
0	9755	2.9	3
0	9756	2.9	5
0	9757	2.9	3
0	9758	2.9	5
0	9759	2.9	8
0	9760	2.9	5
0	9761	2.9	3
0	9762	2.9	5
0	9763	2.9	3
0	9764	2.9	1
0	9765	2.9	1
0	9968	2.95	3
0	9969	2.95	5
0	9970	2.95	3
0	9971	2.95	5
0	9972	2.95	8
0	9973	2.95	5
0	9974	2.95	3
0	9975	2.95	5
0	9976	2.95	3
0	9977	2.95	1
0	9978	2.95	1
0	10089	3	3
0	10090	3	5
0	10091	3	3
0	10092	3	5
0	10093	3	8
0	10094	3	5
0	10095	3	3
0	10096	3	5
0	10097	3	3
0	10098	3	1
0	10099	3	1
0	10103	3	3
0	10104	3	5
0	10105	3	3
0	10106	3	5
0	10107	3	8
0	10108	3	5
0	10109	3	3
0	10110	3	5
0	10111	3	3
0	10112	3	1
0	10113	3	1
0	10224	3.05	3
0	10225	3.05	5
0	10226	3.05	3
0	10227	3.05	5
0	10228	3.05	8
0	10229	3.05	5
0	10230	3.05	3
0	10231	3.05	5
0	10232	3.05	3
0	10233	3.05	1
0	10234	3.05	1
0	10334	3.1	3
0	10335	3.1	5
0	10336	3.1	3
0	10337	3.1	5
0	10338	3.1	8
0	10339	3.1	5
0	10340	3.1	3
0	10341	3.1	5
0	10342	3.1	3
0	10343	3.1	1
0	10344	3.1	1
0	10348	3.1	3
0	10349	3.1	5
0	10350	3.1	3
0	10351	3.1	5
0	10352	3.1	8
0	10353	3.1	5
0	10354	3.1	3
0	10355	3.1	5
0	10356	3.1	3
0	10357	3.1	1
0	10358	3.1	1
0	10480	3.15	3
0	10481	3.15	5
0	10482	3.15	3
0	10483	3.15	5
0	10484	3.15	8
0	10485	3.15	5
0	10486	3.15	3
0	10487	3.15	5
0	10488	3.15	3
0	10489	3.15	1
0	10490	3.15	1
0	10579	3.2	3
0	10580	3.2	5
0	10581	3.2	3
0	10582	3.2	5
0	10583	3.2	8
0	10584	3.2	5
0	10585	3.2	3
0	10586	3.2	5
0	10587	3.2	3
0	10588	3.2	1
0	10589	3.2	1
0	10593	3.2	3
0	10594	3.2	5
0	10595	3.2	3
0	10596	3.2	5
0	10597	3.2	8
0	10598	3.2	5
0	10599	3.2	3
0	10600	3.2	5
0	10601	3.2	3
0	10602	3.2	1
0	10603	3.2	1
0	10714	3.25	3
0	10715	3.25	5
0	10716	3.25	3
0	10717	3.25	5
0	10718	3.25	8
0	10719	3.25	5
0	10720	3.25	3
0	10721	3.25	5
0	10722	3.25	3
0	10723	3.25	1
0	10724	3.25	1
0	10869	3.3	3
0	10870	3.3	5
0	10871	3.3	3
0	10872	3.3	5
0	10873	3.3	8
0	10874	3.3	5
0	10875	3.3	3
0	10876	3.3	5
0	10877	3.3	3
0	10878	3.3	1
0	10879	3.3	1
0	10883	3.3	3
0	10884	3.3	5
0	10885	3.3	3
0	10886	3.3	5
0	10887	3.3	8
0	10888	3.3	5
0	10889	3.3	3
0	10890	3.3	5
0	10891	3.3	3
0	10892	3.3	1
0	10893	3.3	1
0	11398	3.35	3
0	11399	3.35	5
0	11400	3.35	3
0	11401	3.35	5
0	11402	3.35	8
0	11403	3.35	5
0	11404	3.35	3
0	11405	3.35	5
0	11406	3.35	3
0	11407	3.35	1
0	11408	3.35	1
0	11590	3.4	3
0	11591	3.4	5
0	11592	3.4	3
0	11593	3.4	5
0	11594	3.4	8
0	11595	3.4	5
0	11596	3.4	3
0	11597	3.4	5
0	11598	3.4	3
0	11599	3.4	1
0	11600	3.4	1
0	11604	3.4	3
0	11605	3.4	5
0	11606	3.4	3
0	11607	3.4	5
0	11608	3.4	8
0	11609	3.4	5
0	11610	3.4	3
0	11611	3.4	5
0	11612	3.4	3
0	11613	3.4	1
0	11614	3.4	1
0	11730	3.45	3
0	11731	3.45	5
0	11732	3.45	3
0	11733	3.45	5
0	11734	3.45	8
0	11735	3.45	5
0	11736	3.45	3
0	11737	3.45	5
0	11738	3.45	3
0	11739	3.45	1
0	11740	3.45	1
0	11915	3.5	3
0	11916	3.5	5
0	11917	3.5	3
0	11918	3.5	5
0	11919	3.5	8
0	11920	3.5	5
0	11921	3.5	3
0	11922	3.5	5
0	11923	3.5	3
0	11924	3.5	1
0	11925	3.5	1
0	11929	3.5	3
0	11930	3.5	5
0	11931	3.5	3
0	11932	3.5	5
0	11933	3.5	8
0	11934	3.5	5
0	11935	3.5	3
0	11936	3.5	5
0	11937	3.5	3
0	11938	3.5	1
0	11939	3.5	1
0	12055	3.55	3
0	12056	3.55	5
0	12057	3.55	3
0	12058	3.55	5
0	12059	3.55	8
0	12060	3.55	5
0	12061	3.55	3
0	12062	3.55	5
0	12063	3.55	3
0	12064	3.55	1
0	12065	3.55	1
0	12154	3.6	3
0	12155	3.6	5
0	12156	3.6	3
0	12157	3.6	5
0	12158	3.6	8
0	12159	3.6	5
0	12160	3.6	3
0	12161	3.6	5
0	12162	3.6	3
0	12163	3.6	1
0	12164	3.6	1
0	12168	3.6	3
0	12169	3.6	5
0	12170	3.6	3
0	12171	3.6	5
0	12172	3.6	8
0	12173	3.6	5
0	12174	3.6	3
0	12175	3.6	5
0	12176	3.6	3
0	12177	3.6	1
0	12178	3.6	1
0	12289	3.65	3
0	12290	3.65	5
0	12291	3.65	3
0	12292	3.65	5
0	12293	3.65	8
0	12294	3.65	5
0	12295	3.65	3
0	12296	3.65	5
0	12297	3.65	3
0	12298	3.65	1
0	12299	3.65	1
0	12388	3.7	3
0	12389	3.7	5
0	12390	3.7	3
0	12391	3.7	5
0	12392	3.7	8
0	12393	3.7	5
0	12394	3.7	3
0	12395	3.7	5
0	12396	3.7	3
0	12397	3.7	1
0	12398	3.7	1
0	12402	3.7	3
0	12403	3.7	5
0	12404	3.7	3
0	12405	3.7	5
0	12406	3.7	8
0	12407	3.7	5
0	12408	3.7	3
0	12409	3.7	5
0	12410	3.7	3
0	12411	3.7	1
0	12412	3.7	1
0	12523	3.75	3
0	12524	3.75	5
0	12525	3.75	3
0	12526	3.75	5
0	12527	3.75	8
0	12528	3.75	5
0	12529	3.75	3
0	12530	3.75	5
0	12531	3.75	3
0	12532	3.75	1
0	12533	3.75	1
0	12622	3.8	3
0	12623	3.8	5
0	12624	3.8	3
0	12625	3.8	5
0	12626	3.8	8
0	12627	3.8	5
0	12628	3.8	3
0	12629	3.8	5
0	12630	3.8	3
0	12631	3.8	1
0	12632	3.8	1
0	12636	3.8	3
0	12637	3.8	5
0	12638	3.8	3
0	12639	3.8	5
0	12640	3.8	8
0	12641	3.8	5
0	12642	3.8	3
0	12643	3.8	5
0	12644	3.8	3
0	12645	3.8	1
0	12646	3.8	1
0	12808	3.85	3
0	12809	3.85	5
0	12810	3.85	3
0	12811	3.85	5
0	12812	3.85	8
0	12813	3.85	5
0	12814	3.85	3
0	12815	3.85	5
0	12816	3.85	3
0	12817	3.85	1
0	12818	3.85	1
0	13247	3.9	3
0	13248	3.9	5
0	13249	3.9	3
0	13250	3.9	5
0	13251	3.9	8
0	13252	3.9	5
0	13253	3.9	3
0	13254	3.9	5
0	13255	3.9	3
0	13256	3.9	1
0	13257	3.9	1
0	13261	3.9	3
0	13262	3.9	5
0	13263	3.9	3
0	13264	3.9	5
0	13265	3.9	8
0	13266	3.9	5
0	13267	3.9	3
0	13268	3.9	5
0	13269	3.9	3
0	13270	3.9	1
0	13271	3.9	1
0	13430	3.95	3
0	13431	3.95	5
0	13432	3.95	3
0	13433	3.95	5
0	13434	3.95	8
0	13435	3.95	5
0	13436	3.95	3
0	13437	3.95	5
0	13438	3.95	3
0	13439	3.95	1
0	13440	3.95	1
0	13615	4	3
0	13616	4	5
0	13617	4	3
0	13618	4	5
0	13619	4	8
0	13620	4	5
0	13621	4	3
0	13622	4	5
0	13623	4	3
0	13624	4	1
0	13625	4	1
0	13629	4	3
0	13630	4	5
0	13631	4	3
0	13632	4	5
0	13633	4	8
0	13634	4	5
0	13635	4	3
0	13636	4	5
0	13637	4	3
0	13638	4	1
0	13639	4	1
0	13819	4.05	3
0	13820	4.05	5
0	13821	4.05	3
0	13822	4.05	5
0	13823	4.05	8
0	13824	4.05	5
0	13825	4.05	3
0	13826	4.05	5
0	13827	4.05	3
0	13828	4.05	1
0	13829	4.05	1
0	13929	4.1	3
0	13930	4.1	5
0	13931	4.1	3
0	13932	4.1	5
0	13933	4.1	8
0	13934	4.1	5
0	13935	4.1	3
0	13936	4.1	5
0	13937	4.1	3
0	13938	4.1	1
0	13939	4.1	1
0	13943	4.1	3
0	13944	4.1	5
0	13945	4.1	3
0	13946	4.1	5
0	13947	4.1	8
0	13948	4.1	5
0	13949	4.1	3
0	13950	4.1	5
0	13951	4.1	3
0	13952	4.1	1
0	13953	4.1	1
0	14098	4.15	3
0	14099	4.15	5
0	14100	4.15	3
0	14101	4.15	5
0	14102	4.15	8
0	14103	4.15	5
0	14104	4.15	3
0	14105	4.15	5
0	14106	4.15	3
0	14107	4.15	1
0	14108	4.15	1
0	14197	4.2	3
0	14198	4.2	5
0	14199	4.2	3
0	14200	4.2	5
0	14201	4.2	8
0	14202	4.2	5
0	14203	4.2	3
0	14204	4.2	5
0	14205	4.2	3
0	14206	4.2	1
0	14207	4.2	1
0	14211	4.2	3
0	14212	4.2	5
0	14213	4.2	3
0	14214	4.2	5
0	14215	4.2	8
0	14216	4.2	5
0	14217	4.2	3
0	14218	4.2	5
0	14219	4.2	3
0	14220	4.2	1
0	14221	4.2	1
0	14332	4.25	3
0	14333	4.25	5
0	14334	4.25	3
0	14335	4.25	5
0	14336	4.25	8
0	14337	4.25	5
0	14338	4.25	3
0	14339	4.25	5
0	14340	4.25	3
0	14341	4.25	1
0	14342	4.25	1
0	14431	4.3	3
0	14432	4.3	5
0	14433	4.3	3
0	14434	4.3	5
0	14435	4.3	8
0	14436	4.3	5
0	14437	4.3	3
0	14438	4.3	5
0	14439	4.3	3
0	14440	4.3	1
0	14441	4.3	1
0	14445	4.3	3
0	14446	4.3	5
0	14447	4.3	3
0	14448	4.3	5
0	14449	4.3	8
0	14450	4.3	5
0	14451	4.3	3
0	14452	4.3	5
0	14453	4.3	3
0	14454	4.3	1
0	14455	4.3	1
0	14566	4.35	3
0	14567	4.35	5
0	14568	4.35	3
0	14569	4.35	5
0	14570	4.35	8
0	14571	4.35	5
0	14572	4.35	3
0	14573	4.35	5
0	14574	4.35	3
0	14575	4.35	1
0	14576	4.35	1
0	14762	4.4	3
0	14763	4.4	5
0	14764	4.4	3
0	14765	4.4	5
0	14766	4.4	8
0	14767	4.4	5
0	14768	4.4	3
0	14769	4.4	5
0	14770	4.4	3
0	14771	4.4	1
0	14772	4.4	1
0	14776	4.4	3
0	14777	4.4	5
0	14778	4.4	3
0	14779	4.4	5
0	14780	4.4	8
0	14781	4.4	5
0	14782	4.4	3
0	14783	4.4	5
0	14784	4.4	3
0	14785	4.4	1
0	14786	4.4	1
0	15205	4.45	3
0	15206	4.45	5
0	15207	4.45	3
0	15208	4.45	5
0	15209	4.45	8
0	15210	4.45	5
0	15211	4.45	3
0	15212	4.45	5
0	15213	4.45	3
0	15214	4.45	1
0	15215	4.45	1
0	15368	4.5	3
0	15369	4.5	5
0	15370	4.5	3
0	15371	4.5	5
0	15372	4.5	8
0	15373	4.5	5
0	15374	4.5	3
0	15375	4.5	5
0	15376	4.5	3
0	15377	4.5	1
0	15378	4.5	1
0	15382	4.5	3
0	15383	4.5	5
0	15384	4.5	3
0	15385	4.5	5
0	15386	4.5	8
0	15387	4.5	5
0	15388	4.5	3
0	15389	4.5	5
0	15390	4.5	3
0	15391	4.5	1
0	15392	4.5	1
0	15565	4.55	3
0	15566	4.55	5
0	15567	4.55	3
0	15568	4.55	5
0	15569	4.55	8
0	15570	4.55	5
0	15571	4.55	3
0	15572	4.55	5
0	15573	4.55	3
0	15574	4.55	1
0	15575	4.55	1
0	15756	4.6	3
0	15757	4.6	5
0	15758	4.6	3
0	15759	4.6	5
0	15760	4.6	8
0	15761	4.6	5
0	15762	4.6	3
0	15763	4.6	5
0	15764	4.6	3
0	15765	4.6	1
0	15766	4.6	1
0	15770	4.6	3
0	15771	4.6	5
0	15772	4.6	3
0	15773	4.6	5
0	15774	4.6	8
0	15775	4.6	5
0	15776	4.6	3
0	15777	4.6	5
0	15778	4.6	3
0	15779	4.6	1
0	15780	4.6	1
0	15914	4.65	3
0	15915	4.65	5
0	15916	4.65	3
0	15917	4.65	5
0	15918	4.65	8
0	15919	4.65	5
0	15920	4.65	3
0	15921	4.65	5
0	15922	4.65	3
0	15923	4.65	1
0	15924	4.65	1
0	16036	4.7	3
0	16037	4.7	5
0	16038	4.7	3
0	16039	4.7	5
0	16040	4.7	8
0	16041	4.7	5
0	16042	4.7	3
0	16043	4.7	5
0	16044	4.7	3
0	16045	4.7	1
0	16046	4.7	1
0	16050	4.7	3
0	16051	4.7	5
0	16052	4.7	3
0	16053	4.7	5
0	16054	4.7	8
0	16055	4.7	5
0	16056	4.7	3
0	16057	4.7	5
0	16058	4.7	3
0	16059	4.7	1
0	16060	4.7	1
0	16171	4.75	3
0	16172	4.75	5
0	16173	4.75	3
0	16174	4.75	5
0	16175	4.75	8
0	16176	4.75	5
0	16177	4.75	3
0	16178	4.75	5
0	16179	4.75	3
0	16180	4.75	1
0	16181	4.75	1
0	16270	4.8	3
0	16271	4.8	5
0	16272	4.8	3
0	16273	4.8	5
0	16274	4.8	8
0	16275	4.8	5
0	16276	4.8	3
0	16277	4.8	5
0	16278	4.8	3
0	16279	4.8	1
0	16280	4.8	1
0	16284	4.8	3
0	16285	4.8	5
0	16286	4.8	3
0	16287	4.8	5
0	16288	4.8	8
0	16289	4.8	5
0	16290	4.8	3
0	16291	4.8	5
0	16292	4.8	3
0	16293	4.8	1
0	16294	4.8	1
0	16405	4.85	3
0	16406	4.85	5
0	16407	4.85	3
0	16408	4.85	5
0	16409	4.85	8
0	16410	4.85	5
0	16411	4.85	3
0	16412	4.85	5
0	16413	4.85	3
0	16414	4.85	1
0	16415	4.85	1
0	16527	4.9	3
0	16528	4.9	5
0	16529	4.9	3
0	16530	4.9	5
0	16531	4.9	8
0	16532	4.9	5
0	16533	4.9	3
0	16534	4.9	5
0	16535	4.9	3
0	16536	4.9	1
0	16537	4.9	1
0	16541	4.9	3
0	16542	4.9	5
0	16543	4.9	3
0	16544	4.9	5
0	16545	4.9	8
0	16546	4.9	5
0	16547	4.9	3
0	16548	4.9	5
0	16549	4.9	3
0	16550	4.9	1
0	16551	4.9	1
0	16736	4.95	3
0	16737	4.95	5
0	16738	4.95	3
0	16739	4.95	5
0	16740	4.95	8
0	16741	4.95	5
0	16742	4.95	3
0	16743	4.95	5
0	16744	4.95	3
0	16745	4.95	1
0	16746	4.95	1
0	17150	5	3
0	17151	5	5
0	17152	5	3
0	17153	5	5
0	17154	5	8
0	17155	5	5
0	17156	5	3
0	17157	5	5
0	17158	5	3
0	17159	5	1
0	17160	5	1
0	17164	5	3
0	17165	5	5
0	17166	5	3
0	17167	5	5
0	17168	5	8
0	17169	5	5
0	17170	5	3
0	17171	5	5
0	17172	5	3
0	17173	5	1
0	17174	5	1
0	17342	5.05	3
0	17343	5.05	5
0	17344	5.05	3
0	17345	5.05	5
0	17346	5.05	8
0	17347	5.05	5
0	17348	5.05	3
0	17349	5.05	5
0	17350	5.05	3
0	17351	5.05	1
0	17352	5.05	1
0	17542	5.1	3
0	17543	5.1	5
0	17544	5.1	3
0	17545	5.1	5
0	17546	5.1	8
0	17547	5.1	5
0	17548	5.1	3
0	17549	5.1	5
0	17550	5.1	3
0	17551	5.1	1
0	17552	5.1	1
0	17556	5.1	3
0	17557	5.1	5
0	17558	5.1	3
0	17559	5.1	5
0	17560	5.1	8
0	17561	5.1	5
0	17562	5.1	3
0	17563	5.1	5
0	17564	5.1	3
0	17565	5.1	1
0	17566	5.1	1
0	17807	5.15	3
0	17808	5.15	5
0	17809	5.15	3
0	17810	5.15	5
0	17811	5.15	8
0	17812	5.15	5
0	17813	5.15	3
0	17814	5.15	5
0	17815	5.15	3
0	17816	5.15	1
0	17817	5.15	1
0	17959	5.2	3
0	17960	5.2	5
0	17961	5.2	3
0	17962	5.2	5
0	17963	5.2	8
0	17964	5.2	5
0	17965	5.2	3
0	17966	5.2	5
0	17967	5.2	3
0	17968	5.2	1
0	17969	5.2	1
0	17973	5.2	3
0	17974	5.2	5
0	17975	5.2	3
0	17976	5.2	5
0	17977	5.2	8
0	17978	5.2	5
0	17979	5.2	3
0	17980	5.2	5
0	17981	5.2	3
0	17982	5.2	1
0	17983	5.2	1
0	18117	5.25	3
0	18118	5.25	5
0	18119	5.25	3
0	18120	5.25	5
0	18121	5.25	8
0	18122	5.25	5
0	18123	5.25	3
0	18124	5.25	5
0	18125	5.25	3
0	18126	5.25	1
0	18127	5.25	1
0	18216	5.3	3
0	18217	5.3	5
0	18218	5.3	3
0	18219	5.3	5
0	18220	5.3	8
0	18221	5.3	5
0	18222	5.3	3
0	18223	5.3	5
0	18224	5.3	3
0	18225	5.3	1
0	18226	5.3	1
0	18230	5.3	3
0	18231	5.3	5
0	18232	5.3	3
0	18233	5.3	5
0	18234	5.3	8
0	18235	5.3	5
0	18236	5.3	3
0	18237	5.3	5
0	18238	5.3	3
0	18239	5.3	1
0	18240	5.3	1
0	18351	5.35	3
0	18352	5.35	5
0	18353	5.35	3
0	18354	5.35	5
0	18355	5.35	8
0	18356	5.35	5
0	18357	5.35	3
0	18358	5.35	5
0	18359	5.35	3
0	18360	5.35	1
0	18361	5.35	1
0	18450	5.4	3
0	18451	5.4	5
0	18452	5.4	3
0	18453	5.4	5
0	18454	5.4	8
0	18455	5.4	5
0	18456	5.4	3
0	18457	5.4	5
0	18458	5.4	3
0	18459	5.4	1
0	18460	5.4	1
0	18464	5.4	3
0	18465	5.4	5
0	18466	5.4	3
0	18467	5.4	5
0	18468	5.4	8
0	18469	5.4	5
0	18470	5.4	3
0	18471	5.4	5
0	18472	5.4	3
0	18473	5.4	1
0	18474	5.4	1
0	18590	5.45	3
0	18591	5.45	5
0	18592	5.45	3
0	18593	5.45	5
0	18594	5.45	8
0	18595	5.45	5
0	18596	5.45	3
0	18597	5.45	5
0	18598	5.45	3
0	18599	5.45	1
0	18600	5.45	1
0	18751	5.5	3
0	18752	5.5	5
0	18753	5.5	3
0	18754	5.5	5
0	18755	5.5	8
0	18756	5.5	5
0	18757	5.5	3
0	18758	5.5	5
0	18759	5.5	3
0	18760	5.5	1
0	18761	5.5	1
0	18765	5.5	3
0	18766	5.5	5
0	18767	5.5	3
0	18768	5.5	5
0	18769	5.5	8
0	18770	5.5	5
0	18771	5.5	3
0	18772	5.5	5
0	18773	5.5	3
0	18774	5.5	1
0	18775	5.5	1
0	19268	5.55	3
0	19269	5.55	5
0	19270	5.55	3
0	19271	5.55	5
0	19272	5.55	8
0	19273	5.55	5
0	19274	5.55	3
0	19275	5.55	5
0	19276	5.55	3
0	19277	5.55	1
0	19278	5.55	1
0	19622	5.6	3
0	19623	5.6	5
0	19624	5.6	3
0	19625	5.6	5
0	19626	5.6	8
0	19627	5.6	5
0	19628	5.6	3
0	19629	5.6	5
0	19630	5.6	3
0	19631	5.6	1
0	19632	5.6	1
0	19636	5.6	3
0	19637	5.6	5
0	19638	5.6	3
0	19639	5.6	5
0	19640	5.6	8
0	19641	5.6	5
0	19642	5.6	3
0	19643	5.6	5
0	19644	5.6	3
0	19645	5.6	1
0	19646	5.6	1
0	20133	5.65	3
0	20134	5.65	5
0	20135	5.65	3
0	20136	5.65	5
0	20137	5.65	8
0	20138	5.65	5
0	20139	5.65	3
0	20140	5.65	5
0	20141	5.65	3
0	20142	5.65	1
0	20143	5.65	1
0	20449	5.7	3
0	20450	5.7	5
0	20451	5.7	3
0	20452	5.7	5
0	20453	5.7	8
0	20454	5.7	5
0	20455	5.7	3
0	20456	5.7	5
0	20457	5.7	3
0	20458	5.7	1
0	20459	5.7	1
0	20463	5.7	3
0	20464	5.7	5
0	20465	5.7	3
0	20466	5.7	5
0	20467	5.7	8
0	20468	5.7	5
0	20469	5.7	3
0	20470	5.7	5
0	20471	5.7	3
0	20472	5.7	1
0	20473	5.7	1
0	20653	5.75	3
0	20654	5.75	5
0	20655	5.75	3
0	20656	5.75	5
0	20657	5.75	8
0	20658	5.75	5
0	20659	5.75	3
0	20660	5.75	5
0	20661	5.75	3
0	20662	5.75	1
0	20663	5.75	1
0	20821	5.8	3
0	20822	5.8	5
0	20823	5.8	3
0	20824	5.8	5
0	20825	5.8	8
0	20826	5.8	5
0	20827	5.8	3
0	20828	5.8	5
0	20829	5.8	3
0	20830	5.8	1
0	20831	5.8	1
0	20835	5.8	3
0	20836	5.8	5
0	20837	5.8	3
0	20838	5.8	5
0	20839	5.8	8
0	20840	5.8	5
0	20841	5.8	3
0	20842	5.8	5
0	20843	5.8	3
0	20844	5.8	1
0	20845	5.8	1
0	20956	5.85	3
0	20957	5.85	5
0	20958	5.85	3
0	20959	5.85	5
0	20960	5.85	8
0	20961	5.85	5
0	20962	5.85	3
0	20963	5.85	5
0	20964	5.85	3
0	20965	5.85	1
0	20966	5.85	1
0	21055	5.9	3
0	21056	5.9	5
0	21057	5.9	3
0	21058	5.9	5
0	21059	5.9	8
0	21060	5.9	5
0	21061	5.9	3
0	21062	5.9	5
0	21063	5.9	3
0	21064	5.9	1
0	21065	5.9	1
0	21069	5.9	3
0	21070	5.9	5
0	21071	5.9	3
0	21072	5.9	5
0	21073	5.9	8
0	21074	5.9	5
0	21075	5.9	3
0	21076	5.9	5
0	21077	5.9	3
0	21078	5.9	1
0	21079	5.9	1
0	21190	5.95	3
0	21191	5.95	5
0	21192	5.95	3
0	21193	5.95	5
0	21194	5.95	8
0	21195	5.95	5
0	21196	5.95	3
0	21197	5.95	5
0	21198	5.95	3
0	21199	5.95	1
0	21200	5.95	1
0	21323	6	3
0	21324	6	5
0	21325	6	3
0	21326	6	5
0	21327	6	8
0	21328	6	5
0	21329	6	3
0	21330	6	5
0	21331	6	3
0	21332	6	1
0	21333	6	1
0	21337	6	3
0	21338	6	5
0	21339	6	3
0	21340	6	5
0	21341	6	8
0	21342	6	5
0	21343	6	3
0	21344	6	5
0	21345	6	3
0	21346	6	1
0	21347	6	1
0	21498	6.05	3
0	21499	6.05	5
0	21500	6.05	3
0	21501	6.05	5
0	21502	6.05	8
0	21503	6.05	5
0	21504	6.05	3
0	21505	6.05	5
0	21506	6.05	3
0	21507	6.05	1
0	21508	6.05	1
0	21941	6.1	3
0	21942	6.1	5
0	21943	6.1	3
0	21944	6.1	5
0	21945	6.1	8
0	21946	6.1	5
0	21947	6.1	3
0	21948	6.1	5
0	21949	6.1	3
0	21950	6.1	1
0	21951	6.1	1
0	21955	6.1	3
0	21956	6.1	5
0	21957	6.1	3
0	21958	6.1	5
0	21959	6.1	8
0	21960	6.1	5
0	21961	6.1	3
0	21962	6.1	5
0	21963	6.1	3
0	21964	6.1	1
0	21965	6.1	1
0	22255	6.15	3
0	22256	6.15	5
0	22257	6.15	3
0	22258	6.15	5
0	22259	6.15	8
0	22260	6.15	5
0	22261	6.15	3
0	22262	6.15	5
0	22263	6.15	3
0	22264	6.15	1
0	22265	6.15	1
0	22605	6.2	3
0	22606	6.2	5
0	22607	6.2	3
0	22608	6.2	5
0	22609	6.2	8
0	22610	6.2	5
0	22611	6.2	3
0	22612	6.2	5
0	22613	6.2	3
0	22614	6.2	1
0	22615	6.2	1
0	22619	6.2	3
0	22620	6.2	5
0	22621	6.2	3
0	22622	6.2	5
0	22623	6.2	8
0	22624	6.2	5
0	22625	6.2	3
0	22626	6.2	5
0	22627	6.2	3
0	22628	6.2	1
0	22629	6.2	1
0	22899	6.25	3
0	22900	6.25	5
0	22901	6.25	3
0	22902	6.25	5
0	22903	6.25	8
0	22904	6.25	5
0	22905	6.25	3
0	22906	6.25	5
0	22907	6.25	3
0	22908	6.25	1
0	22909	6.25	1
0	23003	6.3	3
0	23004	6.3	5
0	23005	6.3	3
0	23006	6.3	5
0	23007	6.3	8
0	23008	6.3	5
0	23009	6.3	3
0	23010	6.3	5
0	23011	6.3	3
0	23012	6.3	1
0	23013	6.3	1
0	23017	6.3	3
0	23018	6.3	5
0	23019	6.3	3
0	23020	6.3	5
0	23021	6.3	8
0	23022	6.3	5
0	23023	6.3	3
0	23024	6.3	5
0	23025	6.3	3
0	23026	6.3	1
0	23027	6.3	1
0	23207	6.35	3
0	23208	6.35	5
0	23209	6.35	3
0	23210	6.35	5
0	23211	6.35	8
0	23212	6.35	5
0	23213	6.35	3
0	23214	6.35	5
0	23215	6.35	3
0	23216	6.35	1
0	23217	6.35	1
0	23306	6.4	3
0	23307	6.4	5
0	23308	6.4	3
0	23309	6.4	5
0	23310	6.4	8
0	23311	6.4	5
0	23312	6.4	3
0	23313	6.4	5
0	23314	6.4	3
0	23315	6.4	1
0	23316	6.4	1
0	23320	6.4	3
0	23321	6.4	5
0	23322	6.4	3
0	23323	6.4	5
0	23324	6.4	8
0	23325	6.4	5
0	23326	6.4	3
0	23327	6.4	5
0	23328	6.4	3
0	23329	6.4	1
0	23330	6.4	1
0	23441	6.45	3
0	23442	6.45	5
0	23443	6.45	3
0	23444	6.45	5
0	23445	6.45	8
0	23446	6.45	5
0	23447	6.45	3
0	23448	6.45	5
0	23449	6.45	3
0	23450	6.45	1
0	23451	6.45	1
0	23551	6.5	3
0	23552	6.5	5
0	23553	6.5	3
0	23554	6.5	5
0	23555	6.5	8
0	23556	6.5	5
0	23557	6.5	3
0	23558	6.5	5
0	23559	6.5	3
0	23560	6.5	1
0	23561	6.5	1
0	23565	6.5	3
0	23566	6.5	5
0	23567	6.5	3
0	23568	6.5	5
0	23569	6.5	8
0	23570	6.5	5
0	23571	6.5	3
0	23572	6.5	5
0	23573	6.5	3
0	23574	6.5	1
0	23575	6.5	1
0	23714	6.55	3
0	23715	6.55	5
0	23716	6.55	3
0	23717	6.55	5
0	23718	6.55	8
0	23719	6.55	5
0	23720	6.55	3
0	23721	6.55	5
0	23722	6.55	3
0	23723	6.55	1
0	23724	6.55	1
0	23905	6.6	3
0	23906	6.6	5
0	23907	6.6	3
0	23908	6.6	5
0	23909	6.6	8
0	23910	6.6	5
0	23911	6.6	3
0	23912	6.6	5
0	23913	6.6	3
0	23914	6.6	1
0	23915	6.6	1
0	23919	6.6	3
0	23920	6.6	5
0	23921	6.6	3
0	23922	6.6	5
0	23923	6.6	8
0	23924	6.6	5
0	23925	6.6	3
0	23926	6.6	5
0	23927	6.6	3
0	23928	6.6	1
0	23929	6.6	1
0	24369	6.65	3
0	24370	6.65	5
0	24371	6.65	3
0	24372	6.65	5
0	24373	6.65	8
0	24374	6.65	5
0	24375	6.65	3
0	24376	6.65	5
0	24377	6.65	3
0	24378	6.65	1
0	24379	6.65	1
0	24660	6.7	3
0	24661	6.7	5
0	24662	6.7	3
0	24663	6.7	5
0	24664	6.7	8
0	24665	6.7	5
0	24666	6.7	3
0	24667	6.7	5
0	24668	6.7	3
0	24669	6.7	1
0	24670	6.7	1
0	24674	6.7	3
0	24675	6.7	5
0	24676	6.7	3
0	24677	6.7	5
0	24678	6.7	8
0	24679	6.7	5
0	24680	6.7	3
0	24681	6.7	5
0	24682	6.7	3
0	24683	6.7	1
0	24684	6.7	1
0	24953	6.75	3
0	24954	6.75	5
0	24955	6.75	3
0	24956	6.75	5
0	24957	6.75	8
0	24958	6.75	5
0	24959	6.75	3
0	24960	6.75	5
0	24961	6.75	3
0	24962	6.75	1
0	24963	6.75	1
0	25168	6.8	3
0	25169	6.8	5
0	25170	6.8	3
0	25171	6.8	5
0	25172	6.8	8
0	25173	6.8	5
0	25174	6.8	3
0	25175	6.8	5
0	25176	6.8	3
0	25177	6.8	1
0	25178	6.8	1
0	25182	6.8	3
0	25183	6.8	5
0	25184	6.8	3
0	25185	6.8	5
0	25186	6.8	8
0	25187	6.8	5
0	25188	6.8	3
0	25189	6.8	5
0	25190	6.8	3
0	25191	6.8	1
0	25192	6.8	1
0	25308	6.85	3
0	25309	6.85	5
0	25310	6.85	3
0	25311	6.85	5
0	25312	6.85	8
0	25313	6.85	5
0	25314	6.85	3
0	25315	6.85	5
0	25316	6.85	3
0	25317	6.85	1
0	25318	6.85	1
0	25476	6.9	3
0	25477	6.9	5
0	25478	6.9	3
0	25479	6.9	5
0	25480	6.9	8
0	25481	6.9	5
0	25482	6.9	3
0	25483	6.9	5
0	25484	6.9	3
0	25485	6.9	1
0	25486	6.9	1
0	25490	6.9	3
0	25491	6.9	5
0	25492	6.9	3
0	25493	6.9	5
0	25494	6.9	8
0	25495	6.9	5
0	25496	6.9	3
0	25497	6.9	5
0	25498	6.9	3
0	25499	6.9	1
0	25500	6.9	1
0	25611	6.95	3
0	25612	6.95	5
0	25613	6.95	3
0	25614	6.95	5
0	25615	6.95	8
0	25616	6.95	5
0	25617	6.95	3
0	25618	6.95	5
0	25619	6.95	3
0	25620	6.95	1
0	25621	6.95	1
0	25721	7	3
0	25722	7	5
0	25723	7	3
0	25724	7	5
0	25725	7	8
0	25726	7	5
0	25727	7	3
0	25728	7	5
0	25729	7	3
0	25730	7	1
0	25731	7	1
0	25735	7	3
0	25736	7	5
0	25737	7	3
0	25738	7	5
0	25739	7	8
0	25740	7	5
0	25741	7	3
0	25742	7	5
0	25743	7	3
0	25744	7	1
0	25745	7	1
0	25856	7.05	3
0	25857	7.05	5
0	25858	7.05	3
0	25859	7.05	5
0	25860	7.05	8
0	25861	7.05	5
0	25862	7.05	3
0	25863	7.05	5
0	25864	7.05	3
0	25865	7.05	1
0	25866	7.05	1
0	26006	7.1	3
0	26007	7.1	5
0	26008	7.1	3
0	26009	7.1	5
0	26010	7.1	8
0	26011	7.1	5
0	26012	7.1	3
0	26013	7.1	5
0	26014	7.1	3
0	26015	7.1	1
0	26016	7.1	1
0	26020	7.1	3
0	26021	7.1	5
0	26022	7.1	3
0	26023	7.1	5
0	26024	7.1	8
0	26025	7.1	5
0	26026	7.1	3
0	26027	7.1	5
0	26028	7.1	3
0	26029	7.1	1
0	26030	7.1	1
0	26210	7.15	3
0	26211	7.15	5
0	26212	7.15	3
0	26213	7.15	5
0	26214	7.15	8
0	26215	7.15	5
0	26216	7.15	3
0	26217	7.15	5
0	26218	7.15	3
0	26219	7.15	1
0	26220	7.15	1
0	26579	7.2	3
0	26580	7.2	5
0	26581	7.2	3
0	26582	7.2	5
0	26583	7.2	8
0	26584	7.2	5
0	26585	7.2	3
0	26586	7.2	5
0	26587	7.2	3
0	26588	7.2	1
0	26589	7.2	1
0	26593	7.2	3
0	26594	7.2	5
0	26595	7.2	3
0	26596	7.2	5
0	26597	7.2	8
0	26598	7.2	5
0	26599	7.2	3
0	26600	7.2	5
0	26601	7.2	3
0	26602	7.2	1
0	26603	7.2	1
0	26893	7.25	3
0	26894	7.25	5
0	26895	7.25	3
0	26896	7.25	5
0	26897	7.25	8
0	26898	7.25	5
0	26899	7.25	3
0	26900	7.25	5
0	26901	7.25	3
0	26902	7.25	1
0	26903	7.25	1
0	27200	7.3	3
0	27201	7.3	5
0	27202	7.3	3
0	27203	7.3	5
0	27204	7.3	8
0	27205	7.3	5
0	27206	7.3	3
0	27207	7.3	5
0	27208	7.3	3
0	27209	7.3	1
0	27210	7.3	1
0	27214	7.3	3
0	27215	7.3	5
0	27216	7.3	3
0	27217	7.3	5
0	27218	7.3	8
0	27219	7.3	5
0	27220	7.3	3
0	27221	7.3	5
0	27222	7.3	3
0	27223	7.3	1
0	27224	7.3	1
0	27537	7.35	3
0	27538	7.35	5
0	27539	7.35	3
0	27540	7.35	5
0	27541	7.35	8
0	27542	7.35	5
0	27543	7.35	3
0	27544	7.35	5
0	27545	7.35	3
0	27546	7.35	1
0	27547	7.35	1
0	27757	7.4	3
0	27758	7.4	5
0	27759	7.4	3
0	27760	7.4	5
0	27761	7.4	8
0	27762	7.4	5
0	27763	7.4	3
0	27764	7.4	5
0	27765	7.4	3
0	27766	7.4	1
0	27767	7.4	1
0	27771	7.4	3
0	27772	7.4	5
0	27773	7.4	3
0	27774	7.4	5
0	27775	7.4	8
0	27776	7.4	5
0	27777	7.4	3
0	27778	7.4	5
0	27779	7.4	3
0	27780	7.4	1
0	27781	7.4	1
0	28006	7.45	3
0	28007	7.45	5
0	28008	7.45	3
0	28009	7.45	5
0	28010	7.45	8
0	28011	7.45	5
0	28012	7.45	3
0	28013	7.45	5
0	28014	7.45	3
0	28015	7.45	1
0	28016	7.45	1
0	28105	7.5	3
0	28106	7.5	5
0	28107	7.5	3
0	28108	7.5	5
0	28109	7.5	8
0	28110	7.5	5
0	28111	7.5	3
0	28112	7.5	5
0	28113	7.5	3
0	28114	7.5	1
0	28115	7.5	1
0	28119	7.5	3
0	28120	7.5	5
0	28121	7.5	3
0	28122	7.5	5
0	28123	7.5	8
0	28124	7.5	5
0	28125	7.5	3
0	28126	7.5	5
0	28127	7.5	3
0	28128	7.5	1
0	28129	7.5	1
0	28240	7.55	3
0	28241	7.55	5
0	28242	7.55	3
0	28243	7.55	5
0	28244	7.55	8
0	28245	7.55	5
0	28246	7.55	3
0	28247	7.55	5
0	28248	7.55	3
0	28249	7.55	1
0	28250	7.55	1
0	28339	7.6	3
0	28340	7.6	5
0	28341	7.6	3
0	28342	7.6	5
0	28343	7.6	8
0	28344	7.6	5
0	28345	7.6	3
0	28346	7.6	5
0	28347	7.6	3
0	28348	7.6	1
0	28349	7.6	1
0	28353	7.6	3
0	28354	7.6	5
0	28355	7.6	3
0	28356	7.6	5
0	28357	7.6	8
0	28358	7.6	5
0	28359	7.6	3
0	28360	7.6	5
0	28361	7.6	3
0	28362	7.6	1
0	28363	7.6	1
0	28514	7.65	3
0	28515	7.65	5
0	28516	7.65	3
0	28517	7.65	5
0	28518	7.65	8
0	28519	7.65	5
0	28520	7.65	3
0	28521	7.65	5
0	28522	7.65	3
0	28523	7.65	1
0	28524	7.65	1
0	28618	7.7	3
0	28619	7.7	5
0	28620	7.7	3
0	28621	7.7	5
0	28622	7.7	8
0	28623	7.7	5
0	28624	7.7	3
0	28625	7.7	5
0	28626	7.7	3
0	28627	7.7	1
0	28628	7.7	1
0	28632	7.7	3
0	28633	7.7	5
0	28634	7.7	3
0	28635	7.7	5
0	28636	7.7	8
0	28637	7.7	5
0	28638	7.7	3
0	28639	7.7	5
0	28640	7.7	3
0	28641	7.7	1
0	28642	7.7	1
0	29005	7.75	3
0	29006	7.75	5
0	29007	7.75	3
0	29008	7.75	5
0	29009	7.75	8
0	29010	7.75	5
0	29011	7.75	3
0	29012	7.75	5
0	29013	7.75	3
0	29014	7.75	1
0	29015	7.75	1
0	29233	7.8	3
0	29234	7.8	5
0	29235	7.8	3
0	29236	7.8	5
0	29237	7.8	8
0	29238	7.8	5
0	29239	7.8	3
0	29240	7.8	5
0	29241	7.8	3
0	29242	7.8	1
0	29243	7.8	1
0	29247	7.8	3
0	29248	7.8	5
0	29249	7.8	3
0	29250	7.8	5
0	29251	7.8	8
0	29252	7.8	5
0	29253	7.8	3
0	29254	7.8	5
0	29255	7.8	3
0	29256	7.8	1
0	29257	7.8	1
0	29458	7.85	3
0	29459	7.85	5
0	29460	7.85	3
0	29461	7.85	5
0	29462	7.85	8
0	29463	7.85	5
0	29464	7.85	3
0	29465	7.85	5
0	29466	7.85	3
0	29467	7.85	1
0	29468	7.85	1
0	29750	7.9	3
0	29751	7.9	5
0	29752	7.9	3
0	29753	7.9	5
0	29754	7.9	8
0	29755	7.9	5
0	29756	7.9	3
0	29757	7.9	5
0	29758	7.9	3
0	29759	7.9	1
0	29760	7.9	1
0	29764	7.9	3
0	29765	7.9	5
0	29766	7.9	3
0	29767	7.9	5
0	29768	7.9	8
0	29769	7.9	5
0	29770	7.9	3
0	29771	7.9	5
0	29772	7.9	3
0	29773	7.9	1
0	29774	7.9	1
0	29916	7.95	3
0	29917	7.95	5
0	29918	7.95	3
0	29919	7.95	5
0	29920	7.95	8
0	29921	7.95	5
0	29922	7.95	3
0	29923	7.95	5
0	29924	7.95	3
0	29925	7.95	1
0	29926	7.95	1
0	30107	8	3
0	30108	8	5
0	30109	8	3
0	30110	8	5
0	30111	8	8
0	30112	8	5
0	30113	8	3
0	30114	8	5
0	30115	8	3
0	30116	8	1
0	30117	8	1
0	30121	8	3
0	30122	8	5
0	30123	8	3
0	30124	8	5
0	30125	8	8
0	30126	8	5
0	30127	8	3
0	30128	8	5
0	30129	8	3
0	30130	8	1
0	30131	8	1
0	30242	8.05	3
0	30243	8.05	5
0	30244	8.05	3
0	30245	8.05	5
0	30246	8.05	8
0	30247	8.05	5
0	30248	8.05	3
0	30249	8.05	5
0	30250	8.05	3
0	30251	8.05	1
0	30252	8.05	1
0	30352	8.1	3
0	30353	8.1	5
0	30354	8.1	3
0	30355	8.1	5
0	30356	8.1	8
0	30357	8.1	5
0	30358	8.1	3
0	30359	8.1	5
0	30360	8.1	3
0	30361	8.1	1
0	30362	8.1	1
0	30366	8.1	3
0	30367	8.1	5
0	30368	8.1	3
0	30369	8.1	5
0	30370	8.1	8
0	30371	8.1	5
0	30372	8.1	3
0	30373	8.1	5
0	30374	8.1	3
0	30375	8.1	1
0	30376	8.1	1
0	30500	8.15	3
0	30501	8.15	5
0	30502	8.15	3
0	30503	8.15	5
0	30504	8.15	8
0	30505	8.15	5
0	30506	8.15	3
0	30507	8.15	5
0	30508	8.15	3
0	30509	8.15	1
0	30510	8.15	1
0	30609	8.2	3
0	30610	8.2	5
0	30611	8.2	3
0	30612	8.2	5
0	30613	8.2	8
0	30614	8.2	5
0	30615	8.2	3
0	30616	8.2	5
0	30617	8.2	3
0	30618	8.2	1
0	30619	8.2	1
0	30623	8.2	3
0	30624	8.2	5
0	30625	8.2	3
0	30626	8.2	5
0	30627	8.2	8
0	30628	8.2	5
0	30629	8.2	3
0	30630	8.2	5
0	30631	8.2	3
0	30632	8.2	1
0	30633	8.2	1
0	30744	8.25	3
0	30745	8.25	5
0	30746	8.25	3
0	30747	8.25	5
0	30748	8.25	8
0	30749	8.25	5
0	30750	8.25	3
0	30751	8.25	5
0	30752	8.25	3
0	30753	8.25	1
0	30754	8.25	1
0	31129	8.3	3
0	31130	8.3	5
0	31131	8.3	3
0	31132	8.3	5
0	31133	8.3	8
0	31134	8.3	5
0	31135	8.3	3
0	31136	8.3	5
0	31137	8.3	3
0	31138	8.3	1
0	31139	8.3	1
0	31143	8.3	3
0	31144	8.3	5
0	31145	8.3	3
0	31146	8.3	5
0	31147	8.3	8
0	31148	8.3	5
0	31149	8.3	3
0	31150	8.3	5
0	31151	8.3	3
0	31152	8.3	1
0	31153	8.3	1
0	31374	8.35	3
0	31375	8.35	5
0	31376	8.35	3
0	31377	8.35	5
0	31378	8.35	8
0	31379	8.35	5
0	31380	8.35	3
0	31381	8.35	5
0	31382	8.35	3
0	31383	8.35	1
0	31384	8.35	1
0	31547	8.4	3
0	31548	8.4	5
0	31549	8.4	3
0	31550	8.4	5
0	31551	8.4	8
0	31552	8.4	5
0	31553	8.4	3
0	31554	8.4	5
0	31555	8.4	3
0	31556	8.4	1
0	31557	8.4	1
0	31561	8.4	3
0	31562	8.4	5
0	31563	8.4	3
0	31564	8.4	5
0	31565	8.4	8
0	31566	8.4	5
0	31567	8.4	3
0	31568	8.4	5
0	31569	8.4	3
0	31570	8.4	1
0	31571	8.4	1
0	31901	8.45	3
0	31902	8.45	5
0	31903	8.45	3
0	31904	8.45	5
0	31905	8.45	8
0	31906	8.45	5
0	31907	8.45	3
0	31908	8.45	5
0	31909	8.45	3
0	31910	8.45	1
0	31911	8.45	1
0	32090	8.5	3
0	32091	8.5	5
0	32092	8.5	3
0	32093	8.5	5
0	32094	8.5	8
0	32095	8.5	5
0	32096	8.5	3
0	32097	8.5	5
0	32098	8.5	3
0	32099	8.5	1
0	32100	8.5	1
0	32104	8.5	3
0	32105	8.5	5
0	32106	8.5	3
0	32107	8.5	5
0	32108	8.5	8
0	32109	8.5	5
0	32110	8.5	3
0	32111	8.5	5
0	32112	8.5	3
0	32113	8.5	1
0	32114	8.5	1
0	32382	8.55	3
0	32383	8.55	5
0	32384	8.55	3
0	32385	8.55	5
0	32386	8.55	8
0	32387	8.55	5
0	32388	8.55	3
0	32389	8.55	5
0	32390	8.55	3
0	32391	8.55	1
0	32392	8.55	1
0	32481	8.6	3
0	32482	8.6	5
0	32483	8.6	3
0	32484	8.6	5
0	32485	8.6	8
0	32486	8.6	5
0	32487	8.6	3
0	32488	8.6	5
0	32489	8.6	3
0	32490	8.6	1
0	32491	8.6	1
0	32495	8.6	3
0	32496	8.6	5
0	32497	8.6	3
0	32498	8.6	5
0	32499	8.6	8
0	32500	8.6	5
0	32501	8.6	3
0	32502	8.6	5
0	32503	8.6	3
0	32504	8.6	1
0	32505	8.6	1
0	32616	8.65	3
0	32617	8.65	5
0	32618	8.65	3
0	32619	8.65	5
0	32620	8.65	8
0	32621	8.65	5
0	32622	8.65	3
0	32623	8.65	5
0	32624	8.65	3
0	32625	8.65	1
0	32626	8.65	1
0	32732	8.7	3
0	32733	8.7	5
0	32734	8.7	3
0	32735	8.7	5
0	32736	8.7	8
0	32737	8.7	5
0	32738	8.7	3
0	32739	8.7	5
0	32740	8.7	3
0	32741	8.7	1
0	32742	8.7	1
0	32746	8.7	3
0	32747	8.7	5
0	32748	8.7	3
0	32749	8.7	5
0	32750	8.7	8
0	32751	8.7	5
0	32752	8.7	3
0	32753	8.7	5
0	32754	8.7	3
0	32755	8.7	1
0	32756	8.7	1
0	32867	8.75	3
0	32868	8.75	5
0	32869	8.75	3
0	32870	8.75	5
0	32871	8.75	8
0	32872	8.75	5
0	32873	8.75	3
0	32874	8.75	5
0	32875	8.75	3
0	32876	8.75	1
0	32877	8.75	1
0	32966	8.8	3
0	32967	8.8	5
0	32968	8.8	3
0	32969	8.8	5
0	32970	8.8	8
0	32971	8.8	5
0	32972	8.8	3
0	32973	8.8	5
0	32974	8.8	3
0	32975	8.8	1
0	32976	8.8	1
0	32980	8.8	3
0	32981	8.8	5
0	32982	8.8	3
0	32983	8.8	5
0	32984	8.8	8
0	32985	8.8	5
0	32986	8.8	3
0	32987	8.8	5
0	32988	8.8	3
0	32989	8.8	1
0	32990	8.8	1
0	33319	8.85	3
0	33320	8.85	5
0	33321	8.85	3
0	33322	8.85	5
0	33323	8.85	8
0	33324	8.85	5
0	33325	8.85	3
0	33326	8.85	5
0	33327	8.85	3
0	33328	8.85	1
0	33329	8.85	1
0	33502	8.9	3
0	33503	8.9	5
0	33504	8.9	3
0	33505	8.9	5
0	33506	8.9	8
0	33507	8.9	5
0	33508	8.9	3
0	33509	8.9	5
0	33510	8.9	3
0	33511	8.9	1
0	33512	8.9	1
0	33516	8.9	3
0	33517	8.9	5
0	33518	8.9	3
0	33519	8.9	5
0	33520	8.9	8
0	33521	8.9	5
0	33522	8.9	3
0	33523	8.9	5
0	33524	8.9	3
0	33525	8.9	1
0	33526	8.9	1
0	33742	8.95	3
0	33743	8.95	5
0	33744	8.95	3
0	33745	8.95	5
0	33746	8.95	8
0	33747	8.95	5
0	33748	8.95	3
0	33749	8.95	5
0	33750	8.95	3
0	33751	8.95	1
0	33752	8.95	1
0	34011	9	3
0	34012	9	5
0	34013	9	3
0	34014	9	5
0	34015	9	8
0	34016	9	5
0	34017	9	3
0	34018	9	5
0	34019	9	3
0	34020	9	1
0	34021	9	1
0	34025	9	3
0	34026	9	5
0	34027	9	3
0	34028	9	5
0	34029	9	8
0	34030	9	5
0	34031	9	3
0	34032	9	5
0	34033	9	3
0	34034	9	1
0	34035	9	1
0	34215	9.05	3
0	34216	9.05	5
0	34217	9.05	3
0	34218	9.05	5
0	34219	9.05	8
0	34220	9.05	5
0	34221	9.05	3
0	34222	9.05	5
0	34223	9.05	3
0	34224	9.05	1
0	34225	9.05	1
0	34381	9.1	3
0	34382	9.1	5
0	34383	9.1	3
0	34384	9.1	5
0	34385	9.1	8
0	34386	9.1	5
0	34387	9.1	3
0	34388	9.1	5
0	34389	9.1	3
0	34390	9.1	1
0	34391	9.1	1
0	34395	9.1	3
0	34396	9.1	5
0	34397	9.1	3
0	34398	9.1	5
0	34399	9.1	8
0	34400	9.1	5
0	34401	9.1	3
0	34402	9.1	5
0	34403	9.1	3
0	34404	9.1	1
0	34405	9.1	1
0	34529	9.15	3
0	34530	9.15	5
0	34531	9.15	3
0	34532	9.15	5
0	34533	9.15	8
0	34534	9.15	5
0	34535	9.15	3
0	34536	9.15	5
0	34537	9.15	3
0	34538	9.15	1
0	34539	9.15	1
0	34628	9.2	3
0	34629	9.2	5
0	34630	9.2	3
0	34631	9.2	5
0	34632	9.2	8
0	34633	9.2	5
0	34634	9.2	3
0	34635	9.2	5
0	34636	9.2	3
0	34637	9.2	1
0	34638	9.2	1
0	34642	9.2	3
0	34643	9.2	5
0	34644	9.2	3
0	34645	9.2	5
0	34646	9.2	8
0	34647	9.2	5
0	34648	9.2	3
0	34649	9.2	5
0	34650	9.2	3
0	34651	9.2	1
0	34652	9.2	1
0	34791	9.25	3
0	34792	9.25	5
0	34793	9.25	3
0	34794	9.25	5
0	34795	9.25	8
0	34796	9.25	5
0	34797	9.25	3
0	34798	9.25	5
0	34799	9.25	3
0	34800	9.25	1
0	34801	9.25	1
0	34890	9.3	3
0	34891	9.3	5
0	34892	9.3	3
0	34893	9.3	5
0	34894	9.3	8
0	34895	9.3	5
0	34896	9.3	3
0	34897	9.3	5
0	34898	9.3	3
0	34899	9.3	1
0	34900	9.3	1
0	34904	9.3	3
0	34905	9.3	5
0	34906	9.3	3
0	34907	9.3	5
0	34908	9.3	8
0	34909	9.3	5
0	34910	9.3	3
0	34911	9.3	5
0	34912	9.3	3
0	34913	9.3	1
0	34914	9.3	1
0	35025	9.35	3
0	35026	9.35	5
0	35027	9.35	3
0	35028	9.35	5
0	35029	9.35	8
0	35030	9.35	5
0	35031	9.35	3
0	35032	9.35	5
0	35033	9.35	3
0	35034	9.35	1
0	35035	9.35	1
0	35383	9.4	3
0	35384	9.4	5
0	35385	9.4	3
0	35386	9.4	5
0	35387	9.4	8
0	35388	9.4	5
0	35389	9.4	3
0	35390	9.4	5
0	35391	9.4	3
0	35392	9.4	1
0	35393	9.4	1
0	35397	9.4	3
0	35398	9.4	5
0	35399	9.4	3
0	35400	9.4	5
0	35401	9.4	8
0	35402	9.4	5
0	35403	9.4	3
0	35404	9.4	5
0	35405	9.4	3
0	35406	9.4	1
0	35407	9.4	1
0	35734	9.45	3
0	35735	9.45	5
0	35736	9.45	3
0	35737	9.45	5
0	35738	9.45	8
0	35739	9.45	5
0	35740	9.45	3
0	35741	9.45	5
0	35742	9.45	3
0	35743	9.45	1
0	35744	9.45	1
0	35878	9.5	3
0	35879	9.5	5
0	35880	9.5	3
0	35881	9.5	5
0	35882	9.5	8
0	35883	9.5	5
0	35884	9.5	3
0	35885	9.5	5
0	35886	9.5	3
0	35887	9.5	1
0	35888	9.5	1
0	35892	9.5	3
0	35893	9.5	5
0	35894	9.5	3
0	35895	9.5	5
0	35896	9.5	8
0	35897	9.5	5
0	35898	9.5	3
0	35899	9.5	5
0	35900	9.5	3
0	35901	9.5	1
0	35902	9.5	1
0	36188	9.55	3
0	36189	9.55	5
0	36190	9.55	3
0	36191	9.55	5
0	36192	9.55	8
0	36193	9.55	5
0	36194	9.55	3
0	36195	9.55	5
0	36196	9.55	3
0	36197	9.55	1
0	36198	9.55	1
0	36341	9.6	3
0	36342	9.6	5
0	36343	9.6	3
0	36344	9.6	5
0	36345	9.6	8
0	36346	9.6	5
0	36347	9.6	3
0	36348	9.6	5
0	36349	9.6	3
0	36350	9.6	1
0	36351	9.6	1
0	36355	9.6	3
0	36356	9.6	5
0	36357	9.6	3
0	36358	9.6	5
0	36359	9.6	8
0	36360	9.6	5
0	36361	9.6	3
0	36362	9.6	5
0	36363	9.6	3
0	36364	9.6	1
0	36365	9.6	1
0	36543	9.65	3
0	36544	9.65	5
0	36545	9.65	3
0	36546	9.65	5
0	36547	9.65	8
0	36548	9.65	5
0	36549	9.65	3
0	36550	9.65	5
0	36551	9.65	3
0	36552	9.65	1
0	36553	9.65	1
0	36642	9.7	3
0	36643	9.7	5
0	36644	9.7	3
0	36645	9.7	5
0	36646	9.7	8
0	36647	9.7	5
0	36648	9.7	3
0	36649	9.7	5
0	36650	9.7	3
0	36651	9.7	1
0	36652	9.7	1
0	36656	9.7	3
0	36657	9.7	5
0	36658	9.7	3
0	36659	9.7	5
0	36660	9.7	8
0	36661	9.7	5
0	36662	9.7	3
0	36663	9.7	5
0	36664	9.7	3
0	36665	9.7	1
0	36666	9.7	1
0	36777	9.75	3
0	36778	9.75	5
0	36779	9.75	3
0	36780	9.75	5
0	36781	9.75	8
0	36782	9.75	5
0	36783	9.75	3
0	36784	9.75	5
0	36785	9.75	3
0	36786	9.75	1
0	36787	9.75	1
0	36933	9.8	3
0	36934	9.8	5
0	36935	9.8	3
0	36936	9.8	5
0	36937	9.8	8
0	36938	9.8	5
0	36939	9.8	3
0	36940	9.8	5
0	36941	9.8	3
0	36942	9.8	1
0	36943	9.8	1
0	36947	9.8	3
0	36948	9.8	5
0	36949	9.8	3
0	36950	9.8	5
0	36951	9.8	8
0	36952	9.8	5
0	36953	9.8	3
0	36954	9.8	5
0	36955	9.8	3
0	36956	9.8	1
0	36957	9.8	1
0	37068	9.85	3
0	37069	9.85	5
0	37070	9.85	3
0	37071	9.85	5
0	37072	9.85	8
0	37073	9.85	5
0	37074	9.85	3
0	37075	9.85	5
0	37076	9.85	3
0	37077	9.85	1
0	37078	9.85	1
0	37167	9.9	3
0	37168	9.9	5
0	37169	9.9	3
0	37170	9.9	5
0	37171	9.9	8
0	37172	9.9	5
0	37173	9.9	3
0	37174	9.9	5
0	37175	9.9	3
0	37176	9.9	1
0	37177	9.9	1
0	37181	9.9	3
0	37182	9.9	5
0	37183	9.9	3
0	37184	9.9	5
0	37185	9.9	8
0	37186	9.9	5
0	37187	9.9	3
0	37188	9.9	5
0	37189	9.9	3
0	37190	9.9	1
0	37191	9.9	1
0	37567	9.95	3
0	37568	9.95	5
0	37569	9.95	3
0	37570	9.95	5
0	37571	9.95	8
0	37572	9.95	5
0	37573	9.95	3
0	37574	9.95	5
0	37575	9.95	3
0	37576	9.95	1
0	37577	9.95	1
0	37731	10	3
0	37732	10	5
0	37733	10	3
0	37734	10	5
0	37735	10	8
0	37736	10	5
0	37737	10	3
0	37738	10	5
0	37739	10	3
0	37740	10	1
0	37741	10	1
0	37745	10	3
0	37746	10	5
0	37747	10	3
0	37748	10	5
0	37749	10	8
0	37750	10	5
0	37751	10	3
0	37752	10	5
0	37753	10	3
0	37754	10	1
0	37755	10	1
0	37929	10.05	3
0	37930	10.05	5
0	37931	10.05	3
0	37932	10.05	5
0	37933	10.05	8
0	37934	10.05	5
0	37935	10.05	3
0	37936	10.05	5
0	37937	10.05	3
0	37938	10.05	1
0	37939	10.05	1
0	38159	10.1	3
0	38160	10.1	5
0	38161	10.1	3
0	38162	10.1	5
0	38163	10.1	8
0	38164	10.1	5
0	38165	10.1	3
0	38166	10.1	5
0	38167	10.1	3
0	38168	10.1	1
0	38169	10.1	1
0	38173	10.1	3
0	38174	10.1	5
0	38175	10.1	3
0	38176	10.1	5
0	38177	10.1	8
0	38178	10.1	5
0	38179	10.1	3
0	38180	10.1	5
0	38181	10.1	3
0	38182	10.1	1
0	38183	10.1	1
0	38353	10.15	3
0	38354	10.15	5
0	38355	10.15	3
0	38356	10.15	5
0	38357	10.15	8
0	38358	10.15	5
0	38359	10.15	3
0	38360	10.15	5
0	38361	10.15	3
0	38362	10.15	1
0	38363	10.15	1
0	38533	10.2	3
0	38534	10.2	5
0	38535	10.2	3
0	38536	10.2	5
0	38537	10.2	8
0	38538	10.2	5
0	38539	10.2	3
0	38540	10.2	5
0	38541	10.2	3
0	38542	10.2	1
0	38543	10.2	1
0	38547	10.2	3
0	38548	10.2	5
0	38549	10.2	3
0	38550	10.2	5
0	38551	10.2	8
0	38552	10.2	5
0	38553	10.2	3
0	38554	10.2	5
0	38555	10.2	3
0	38556	10.2	1
0	38557	10.2	1
0	38676	10.25	3
0	38677	10.25	5
0	38678	10.25	3
0	38679	10.25	5
0	38680	10.25	8
0	38681	10.25	5
0	38682	10.25	3
0	38683	10.25	5
0	38684	10.25	3
0	38685	10.25	1
0	38686	10.25	1
0	38775	10.3	3
0	38776	10.3	5
0	38777	10.3	3
0	38778	10.3	5
0	38779	10.3	8
0	38780	10.3	5
0	38781	10.3	3
0	38782	10.3	5
0	38783	10.3	3
0	38784	10.3	1
0	38785	10.3	1
0	38789	10.3	3
0	38790	10.3	5
0	38791	10.3	3
0	38792	10.3	5
0	38793	10.3	8
0	38794	10.3	5
0	38795	10.3	3
0	38796	10.3	5
0	38797	10.3	3
0	38798	10.3	1
0	38799	10.3	1
0	38938	10.35	3
0	38939	10.35	5
0	38940	10.35	3
0	38941	10.35	5
0	38942	10.35	8
0	38943	10.35	5
0	38944	10.35	3
0	38945	10.35	5
0	38946	10.35	3
0	38947	10.35	1
0	38948	10.35	1
0	39037	10.4	3
0	39038	10.4	5
0	39039	10.4	3
0	39040	10.4	5
0	39041	10.4	8
0	39042	10.4	5
0	39043	10.4	3
0	39044	10.4	5
0	39045	10.4	3
0	39046	10.4	1
0	39047	10.4	1
0	39051	10.4	3
0	39052	10.4	5
0	39053	10.4	3
0	39054	10.4	5
0	39055	10.4	8
0	39056	10.4	5
0	39057	10.4	3
0	39058	10.4	5
0	39059	10.4	3
0	39060	10.4	1
0	39061	10.4	1
0	39218	10.45	3
0	39219	10.45	5
0	39220	10.45	3
0	39221	10.45	5
0	39222	10.45	8
0	39223	10.45	5
0	39224	10.45	3
0	39225	10.45	5
0	39226	10.45	3
0	39227	10.45	1
0	39228	10.45	1
0	39508	10.5	3
0	39509	10.5	5
0	39510	10.5	3
0	39511	10.5	5
0	39512	10.5	8
0	39513	10.5	5
0	39514	10.5	3
0	39515	10.5	5
0	39516	10.5	3
0	39517	10.5	1
0	39518	10.5	1
0	39522	10.5	3
0	39523	10.5	5
0	39524	10.5	3
0	39525	10.5	5
0	39526	10.5	8
0	39527	10.5	5
0	39528	10.5	3
0	39529	10.5	5
0	39530	10.5	3
0	39531	10.5	1
0	39532	10.5	1
0	39798	10.55	3
0	39799	10.55	5
0	39800	10.55	3
0	39801	10.55	5
0	39802	10.55	8
0	39803	10.55	5
0	39804	10.55	3
0	39805	10.55	5
0	39806	10.55	3
0	39807	10.55	1
0	39808	10.55	1
0	39993	10.6	3
0	39994	10.6	5
0	39995	10.6	3
0	39996	10.6	5
0	39997	10.6	8
0	39998	10.6	5
0	39999	10.6	3
0	40000	10.6	5
0	40001	10.6	3
0	40002	10.6	1
0	40003	10.6	1
0	40007	10.6	3
0	40008	10.6	5
0	40009	10.6	3
0	40010	10.6	5
0	40011	10.6	8
0	40012	10.6	5
0	40013	10.6	3
0	40014	10.6	5
0	40015	10.6	3
0	40016	10.6	1
0	40017	10.6	1
0	40225	10.65	3
0	40226	10.65	5
0	40227	10.65	3
0	40228	10.65	5
0	40229	10.65	8
0	40230	10.65	5
0	40231	10.65	3
0	40232	10.65	5
0	40233	10.65	3
0	40234	10.65	1
0	40235	10.65	1
0	40439	10.7	3
0	40440	10.7	5
0	40441	10.7	3
0	40442	10.7	5
0	40443	10.7	8
0	40444	10.7	5
0	40445	10.7	3
0	40446	10.7	5
0	40447	10.7	3
0	40448	10.7	1
0	40449	10.7	1
0	40453	10.7	3
0	40454	10.7	5
0	40455	10.7	3
0	40456	10.7	5
0	40457	10.7	8
0	40458	10.7	5
0	40459	10.7	3
0	40460	10.7	5
0	40461	10.7	3
0	40462	10.7	1
0	40463	10.7	1
0	40690	10.75	3
0	40691	10.75	5
0	40692	10.75	3
0	40693	10.75	5
0	40694	10.75	8
0	40695	10.75	5
0	40696	10.75	3
0	40697	10.75	5
0	40698	10.75	3
0	40699	10.75	1
0	40700	10.75	1
0	40789	10.8	3
0	40790	10.8	5
0	40791	10.8	3
0	40792	10.8	5
0	40793	10.8	8
0	40794	10.8	5
0	40795	10.8	3
0	40796	10.8	5
0	40797	10.8	3
0	40798	10.8	1
0	40799	10.8	1
0	40803	10.8	3
0	40804	10.8	5
0	40805	10.8	3
0	40806	10.8	5
0	40807	10.8	8
0	40808	10.8	5
0	40809	10.8	3
0	40810	10.8	5
0	40811	10.8	3
0	40812	10.8	1
0	40813	10.8	1
0	40924	10.85	3
0	40925	10.85	5
0	40926	10.85	3
0	40927	10.85	5
0	40928	10.85	8
0	40929	10.85	5
0	40930	10.85	3
0	40931	10.85	5
0	40932	10.85	3
0	40933	10.85	1
0	40934	10.85	1
0	41046	10.9	3
0	41047	10.9	5
0	41048	10.9	3
0	41049	10.9	5
0	41050	10.9	8
0	41051	10.9	5
0	41052	10.9	3
0	41053	10.9	5
0	41054	10.9	3
0	41055	10.9	1
0	41056	10.9	1
0	41060	10.9	3
0	41061	10.9	5
0	41062	10.9	3
0	41063	10.9	5
0	41064	10.9	8
0	41065	10.9	5
0	41066	10.9	3
0	41067	10.9	5
0	41068	10.9	3
0	41069	10.9	1
0	41070	10.9	1
0	41181	10.95	3
0	41182	10.95	5
0	41183	10.95	3
0	41184	10.95	5
0	41185	10.95	8
0	41186	10.95	5
0	41187	10.95	3
0	41188	10.95	5
0	41189	10.95	3
0	41190	10.95	1
0	41191	10.95	1
0	41326	11	3
0	41327	11	5
0	41328	11	3
0	41329	11	5
0	41330	11	8
0	41331	11	5
0	41332	11	3
0	41333	11	5
0	41334	11	3
0	41335	11	1
0	41336	11	1
0	41340	11	3
0	41341	11	5
0	41342	11	3
0	41343	11	5
0	41344	11	8
0	41345	11	5
0	41346	11	3
0	41347	11	5
0	41348	11	3
0	41349	11	1
0	41350	11	1
0	41616	11.05	3
0	41617	11.05	5
0	41618	11.05	3
0	41619	11.05	5
0	41620	11.05	8
0	41621	11.05	5
0	41622	11.05	3
0	41623	11.05	5
0	41624	11.05	3
0	41625	11.05	1
0	41626	11.05	1
0	41777	11.1	3
0	41778	11.1	5
0	41779	11.1	3
0	41780	11.1	5
0	41781	11.1	8
0	41782	11.1	5
0	41783	11.1	3
0	41784	11.1	5
0	41785	11.1	3
0	41786	11.1	1
0	41787	11.1	1
0	41791	11.1	3
0	41792	11.1	5
0	41793	11.1	3
0	41794	11.1	5
0	41795	11.1	8
0	41796	11.1	5
0	41797	11.1	3
0	41798	11.1	5
0	41799	11.1	3
0	41800	11.1	1
0	41801	11.1	1
0	41988	11.15	3
0	41989	11.15	5
0	41990	11.15	3
0	41991	11.15	5
0	41992	11.15	8
0	41993	11.15	5
0	41994	11.15	3
0	41995	11.15	5
0	41996	11.15	3
0	41997	11.15	1
0	41998	11.15	1
0	42184	11.2	3
0	42185	11.2	5
0	42186	11.2	3
0	42187	11.2	5
0	42188	11.2	8
0	42189	11.2	5
0	42190	11.2	3
0	42191	11.2	5
0	42192	11.2	3
0	42193	11.2	1
0	42194	11.2	1
0	42198	11.2	3
0	42199	11.2	5
0	42200	11.2	3
0	42201	11.2	5
0	42202	11.2	8
0	42203	11.2	5
0	42204	11.2	3
0	42205	11.2	5
0	42206	11.2	3
0	42207	11.2	1
0	42208	11.2	1
0	42359	11.25	3
0	42360	11.25	5
0	42361	11.25	3
0	42362	11.25	5
0	42363	11.25	8
0	42364	11.25	5
0	42365	11.25	3
0	42366	11.25	5
0	42367	11.25	3
0	42368	11.25	1
0	42369	11.25	1
0	42509	11.3	3
0	42510	11.3	5
0	42511	11.3	3
0	42512	11.3	5
0	42513	11.3	8
0	42514	11.3	5
0	42515	11.3	3
0	42516	11.3	5
0	42517	11.3	3
0	42518	11.3	1
0	42519	11.3	1
0	42523	11.3	3
0	42524	11.3	5
0	42525	11.3	3
0	42526	11.3	5
0	42527	11.3	8
0	42528	11.3	5
0	42529	11.3	3
0	42530	11.3	5
0	42531	11.3	3
0	42532	11.3	1
0	42533	11.3	1
0	42644	11.35	3
0	42645	11.35	5
0	42646	11.35	3
0	42647	11.35	5
0	42648	11.35	8
0	42649	11.35	5
0	42650	11.35	3
0	42651	11.35	5
0	42652	11.35	3
0	42653	11.35	1
0	42654	11.35	1
0	42748	11.4	3
0	42749	11.4	5
0	42750	11.4	3
0	42751	11.4	5
0	42752	11.4	8
0	42753	11.4	5
0	42754	11.4	3
0	42755	11.4	5
0	42756	11.4	3
0	42757	11.4	1
0	42758	11.4	1
0	42762	11.4	3
0	42763	11.4	5
0	42764	11.4	3
0	42765	11.4	5
0	42766	11.4	8
0	42767	11.4	5
0	42768	11.4	3
0	42769	11.4	5
0	42770	11.4	3
0	42771	11.4	1
0	42772	11.4	1
0	42906	11.45	3
0	42907	11.45	5
0	42908	11.45	3
0	42909	11.45	5
0	42910	11.45	8
0	42911	11.45	5
0	42912	11.45	3
0	42913	11.45	5
0	42914	11.45	3
0	42915	11.45	1
0	42916	11.45	1
0	43005	11.5	3
0	43006	11.5	5
0	43007	11.5	3
0	43008	11.5	5
0	43009	11.5	8
0	43010	11.5	5
0	43011	11.5	3
0	43012	11.5	5
0	43013	11.5	3
0	43014	11.5	1
0	43015	11.5	1
0	43019	11.5	3
0	43020	11.5	5
0	43021	11.5	3
0	43022	11.5	5
0	43023	11.5	8
0	43024	11.5	5
0	43025	11.5	3
0	43026	11.5	5
0	43027	11.5	3
0	43028	11.5	1
0	43029	11.5	1
0	43201	11.55	3
0	43202	11.55	5
0	43203	11.55	3
0	43204	11.55	5
0	43205	11.55	8
0	43206	11.55	5
0	43207	11.55	3
0	43208	11.55	5
0	43209	11.55	3
0	43210	11.55	1
0	43211	11.55	1
0	43449	11.6	3
0	43450	11.6	5
0	43451	11.6	3
0	43452	11.6	5
0	43453	11.6	8
0	43454	11.6	5
0	43455	11.6	3
0	43456	11.6	5
0	43457	11.6	3
0	43458	11.6	1
0	43459	11.6	1
0	43463	11.6	3
0	43464	11.6	5
0	43465	11.6	3
0	43466	11.6	5
0	43467	11.6	8
0	43468	11.6	5
0	43469	11.6	3
0	43470	11.6	5
0	43471	11.6	3
0	43472	11.6	1
0	43473	11.6	1
0	43659	11.65	3
0	43660	11.65	5
0	43661	11.65	3
0	43662	11.65	5
0	43663	11.65	8
0	43664	11.65	5
0	43665	11.65	3
0	43666	11.65	5
0	43667	11.65	3
0	43668	11.65	1
0	43669	11.65	1
0	43892	11.7	3
0	43893	11.7	5
0	43894	11.7	3
0	43895	11.7	5
0	43896	11.7	8
0	43897	11.7	5
0	43898	11.7	3
0	43899	11.7	5
0	43900	11.7	3
0	43901	11.7	1
0	43902	11.7	1
0	43906	11.7	3
0	43907	11.7	5
0	43908	11.7	3
0	43909	11.7	5
0	43910	11.7	8
0	43911	11.7	5
0	43912	11.7	3
0	43913	11.7	5
0	43914	11.7	3
0	43915	11.7	1
0	43916	11.7	1
0	44104	11.75	3
0	44105	11.75	5
0	44106	11.75	3
0	44107	11.75	5
0	44108	11.75	8
0	44109	11.75	5
0	44110	11.75	3
0	44111	11.75	5
0	44112	11.75	3
0	44113	11.75	1
0	44114	11.75	1
0	44257	11.8	3
0	44258	11.8	5
0	44259	11.8	3
0	44260	11.8	5
0	44261	11.8	8
0	44262	11.8	5
0	44263	11.8	3
0	44264	11.8	5
0	44265	11.8	3
0	44266	11.8	1
0	44267	11.8	1
0	44271	11.8	3
0	44272	11.8	5
0	44273	11.8	3
0	44274	11.8	5
0	44275	11.8	8
0	44276	11.8	5
0	44277	11.8	3
0	44278	11.8	5
0	44279	11.8	3
0	44280	11.8	1
0	44281	11.8	1
0	44555	11.85	3
0	44556	11.85	5
0	44557	11.85	3
0	44558	11.85	5
0	44559	11.85	8
0	44560	11.85	5
0	44561	11.85	3
0	44562	11.85	5
0	44563	11.85	3
0	44564	11.85	1
0	44565	11.85	1
0	44692	11.9	3
0	44693	11.9	5
0	44694	11.9	3
0	44695	11.9	5
0	44696	11.9	8
0	44697	11.9	5
0	44698	11.9	3
0	44699	11.9	5
0	44700	11.9	3
0	44701	11.9	1
0	44702	11.9	1
0	44706	11.9	3
0	44707	11.9	5
0	44708	11.9	3
0	44709	11.9	5
0	44710	11.9	8
0	44711	11.9	5
0	44712	11.9	3
0	44713	11.9	5
0	44714	11.9	3
0	44715	11.9	1
0	44716	11.9	1
0	44827	11.95	3
0	44828	11.95	5
0	44829	11.95	3
0	44830	11.95	5
0	44831	11.95	8
0	44832	11.95	5
0	44833	11.95	3
0	44834	11.95	5
0	44835	11.95	3
0	44836	11.95	1
0	44837	11.95	1
0	44960	12	3
0	44961	12	5
0	44962	12	3
0	44963	12	5
0	44964	12	8
0	44965	12	5
0	44966	12	3
0	44967	12	5
0	44968	12	3
0	44969	12	1
0	44970	12	1
0	44974	12	3
0	44975	12	5
0	44976	12	3
0	44977	12	5
0	44978	12	8
0	44979	12	5
0	44980	12	3
0	44981	12	5
0	44982	12	3
0	44983	12	1
0	44984	12	1
0	45118	12.05	3
0	45119	12.05	5
0	45120	12.05	3
0	45121	12.05	5
0	45122	12.05	8
0	45123	12.05	5
0	45124	12.05	3
0	45125	12.05	5
0	45126	12.05	3
0	45127	12.05	1
0	45128	12.05	1
0	45256	12.1	3
0	45257	12.1	5
0	45258	12.1	3
0	45259	12.1	5
0	45260	12.1	8
0	45261	12.1	5
0	45262	12.1	3
0	45263	12.1	5
0	45264	12.1	3
0	45265	12.1	1
0	45266	12.1	1
0	45270	12.1	3
0	45271	12.1	5
0	45272	12.1	3
0	45273	12.1	5
0	45274	12.1	8
0	45275	12.1	5
0	45276	12.1	3
0	45277	12.1	5
0	45278	12.1	3
0	45279	12.1	1
0	45280	12.1	1
0	45500	12.15	3
0	45501	12.15	5
0	45502	12.15	3
0	45503	12.15	5
0	45504	12.15	8
0	45505	12.15	5
0	45506	12.15	3
0	45507	12.15	5
0	45508	12.15	3
0	45509	12.15	1
0	45510	12.15	1
0	45678	12.2	3
0	45679	12.2	5
0	45680	12.2	3
0	45681	12.2	5
0	45682	12.2	8
0	45683	12.2	5
0	45684	12.2	3
0	45685	12.2	5
0	45686	12.2	3
0	45687	12.2	1
0	45688	12.2	1
0	45692	12.2	3
0	45693	12.2	5
0	45694	12.2	3
0	45695	12.2	5
0	45696	12.2	8
0	45697	12.2	5
0	45698	12.2	3
0	45699	12.2	5
0	45700	12.2	3
0	45701	12.2	1
0	45702	12.2	1
0	45882	12.25	3
0	45883	12.25	5
0	45884	12.25	3
0	45885	12.25	5
0	45886	12.25	8
0	45887	12.25	5
0	45888	12.25	3
0	45889	12.25	5
0	45890	12.25	3
0	45891	12.25	1
0	45892	12.25	1
0	46067	12.3	3
0	46068	12.3	5
0	46069	12.3	3
0	46070	12.3	5
0	46071	12.3	8
0	46072	12.3	5
0	46073	12.3	3
0	46074	12.3	5
0	46075	12.3	3
0	46076	12.3	1
0	46077	12.3	1
0	46081	12.3	3
0	46082	12.3	5
0	46083	12.3	3
0	46084	12.3	5
0	46085	12.3	8
0	46086	12.3	5
0	46087	12.3	3
0	46088	12.3	5
0	46089	12.3	3
0	46090	12.3	1
0	46091	12.3	1
0	46264	12.35	3
0	46265	12.35	5
0	46266	12.35	3
0	46267	12.35	5
0	46268	12.35	8
0	46269	12.35	5
0	46270	12.35	3
0	46271	12.35	5
0	46272	12.35	3
0	46273	12.35	1
0	46274	12.35	1
0	46531	12.4	3
0	46532	12.4	5
0	46533	12.4	3
0	46534	12.4	5
0	46535	12.4	8
0	46536	12.4	5
0	46537	12.4	3
0	46538	12.4	5
0	46539	12.4	3
0	46540	12.4	1
0	46541	12.4	1
0	46545	12.4	3
0	46546	12.4	5
0	46547	12.4	3
0	46548	12.4	5
0	46549	12.4	8
0	46550	12.4	5
0	46551	12.4	3
0	46552	12.4	5
0	46553	12.4	3
0	46554	12.4	1
0	46555	12.4	1
0	46697	12.45	3
0	46698	12.45	5
0	46699	12.45	3
0	46700	12.45	5
0	46701	12.45	8
0	46702	12.45	5
0	46703	12.45	3
0	46704	12.45	5
0	46705	12.45	3
0	46706	12.45	1
0	46707	12.45	1
0	46796	12.5	3
0	46797	12.5	5
0	46798	12.5	3
0	46799	12.5	5
0	46800	12.5	8
0	46801	12.5	5
0	46802	12.5	3
0	46803	12.5	5
0	46804	12.5	3
0	46805	12.5	1
0	46806	12.5	1
0	46810	12.5	3
0	46811	12.5	5
0	46812	12.5	3
0	46813	12.5	5
0	46814	12.5	8
0	46815	12.5	5
0	46816	12.5	3
0	46817	12.5	5
0	46818	12.5	3
0	46819	12.5	1
0	46820	12.5	1
0	46948	12.55	3
0	46949	12.55	5
0	46950	12.55	3
0	46951	12.55	5
0	46952	12.55	8
0	46953	12.55	5
0	46954	12.55	3
0	46955	12.55	5
0	46956	12.55	3
0	46957	12.55	1
0	46958	12.55	1
0	47070	12.6	3
0	47071	12.6	5
0	47072	12.6	3
0	47073	12.6	5
0	47074	12.6	8
0	47075	12.6	5
0	47076	12.6	3
0	47077	12.6	5
0	47078	12.6	3
0	47079	12.6	1
0	47080	12.6	1
0	47084	12.6	3
0	47085	12.6	5
0	47086	12.6	3
0	47087	12.6	5
0	47088	12.6	8
0	47089	12.6	5
0	47090	12.6	3
0	47091	12.6	5
0	47092	12.6	3
0	47093	12.6	1
0	47094	12.6	1
0	47245	12.65	3
0	47246	12.65	5
0	47247	12.65	3
0	47248	12.65	5
0	47249	12.65	8
0	47250	12.65	5
0	47251	12.65	3
0	47252	12.65	5
0	47253	12.65	3
0	47254	12.65	1
0	47255	12.65	1
0	47531	12.7	3
0	47532	12.7	5
0	47533	12.7	3
0	47534	12.7	5
0	47535	12.7	8
0	47536	12.7	5
0	47537	12.7	3
0	47538	12.7	5
0	47539	12.7	3
0	47540	12.7	1
0	47541	12.7	1
0	47545	12.7	3
0	47546	12.7	5
0	47547	12.7	3
0	47548	12.7	5
0	47549	12.7	8
0	47550	12.7	5
0	47551	12.7	3
0	47552	12.7	5
0	47553	12.7	3
0	47554	12.7	1
0	47555	12.7	1
0	47810	12.75	3
0	47811	12.75	5
0	47812	12.75	3
0	47813	12.75	5
0	47814	12.75	8
0	47815	12.75	5
0	47816	12.75	3
0	47817	12.75	5
0	47818	12.75	3
0	47819	12.75	1
0	47820	12.75	1
0	48024	12.8	3
0	48025	12.8	5
0	48026	12.8	3
0	48027	12.8	5
0	48028	12.8	8
0	48029	12.8	5
0	48030	12.8	3
0	48031	12.8	5
0	48032	12.8	3
0	48033	12.8	1
0	48034	12.8	1
0	48038	12.8	3
0	48039	12.8	5
0	48040	12.8	3
0	48041	12.8	5
0	48042	12.8	8
0	48043	12.8	5
0	48044	12.8	3
0	48045	12.8	5
0	48046	12.8	3
0	48047	12.8	1
0	48048	12.8	1
0	48233	12.85	3
0	48234	12.85	5
0	48235	12.85	3
0	48236	12.85	5
0	48237	12.85	8
0	48238	12.85	5
0	48239	12.85	3
0	48240	12.85	5
0	48241	12.85	3
0	48242	12.85	1
0	48243	12.85	1
0	48349	12.9	3
0	48350	12.9	5
0	48351	12.9	3
0	48352	12.9	5
0	48353	12.9	8
0	48354	12.9	5
0	48355	12.9	3
0	48356	12.9	5
0	48357	12.9	3
0	48358	12.9	1
0	48359	12.9	1
0	48363	12.9	3
0	48364	12.9	5
0	48365	12.9	3
0	48366	12.9	5
0	48367	12.9	8
0	48368	12.9	5
0	48369	12.9	3
0	48370	12.9	5
0	48371	12.9	3
0	48372	12.9	1
0	48373	12.9	1
0	48570	12.95	3
0	48571	12.95	5
0	48572	12.95	3
0	48573	12.95	5
0	48574	12.95	8
0	48575	12.95	5
0	48576	12.95	3
0	48577	12.95	5
0	48578	12.95	3
0	48579	12.95	1
0	48580	12.95	1
0	48692	13	3
0	48693	13	5
0	48694	13	3
0	48695	13	5
0	48696	13	8
0	48697	13	5
0	48698	13	3
0	48699	13	5
0	48700	13	3
0	48701	13	1
0	48702	13	1
0	48706	13	3
0	48707	13	5
0	48708	13	3
0	48709	13	5
0	48710	13	8
0	48711	13	5
0	48712	13	3
0	48713	13	5
0	48714	13	3
0	48715	13	1
0	48716	13	1
0	48827	13.05	3
0	48828	13.05	5
0	48829	13.05	3
0	48830	13.05	5
0	48831	13.05	8
0	48832	13.05	5
0	48833	13.05	3
0	48834	13.05	5
0	48835	13.05	3
0	48836	13.05	1
0	48837	13.05	1
0	48960	13.1	3
0	48961	13.1	5
0	48962	13.1	3
0	48963	13.1	5
0	48964	13.1	8
0	48965	13.1	5
0	48966	13.1	3
0	48967	13.1	5
0	48968	13.1	3
0	48969	13.1	1
0	48970	13.1	1
0	48974	13.1	3
0	48975	13.1	5
0	48976	13.1	3
0	48977	13.1	5
0	48978	13.1	8
0	48979	13.1	5
0	48980	13.1	3
0	48981	13.1	5
0	48982	13.1	3
0	48983	13.1	1
0	48984	13.1	1
0	49187	13.15	3
0	49188	13.15	5
0	49189	13.15	3
0	49190	13.15	5
0	49191	13.15	8
0	49192	13.15	5
0	49193	13.15	3
0	49194	13.15	5
0	49195	13.15	3
0	49196	13.15	1
0	49197	13.15	1
0	49355	13.2	3
0	49356	13.2	5
0	49357	13.2	3
0	49358	13.2	5
0	49359	13.2	8
0	49360	13.2	5
0	49361	13.2	3
0	49362	13.2	5
0	49363	13.2	3
0	49364	13.2	1
0	49365	13.2	1
0	49369	13.2	3
0	49370	13.2	5
0	49371	13.2	3
0	49372	13.2	5
0	49373	13.2	8
0	49374	13.2	5
0	49375	13.2	3
0	49376	13.2	5
0	49377	13.2	3
0	49378	13.2	1
0	49379	13.2	1
0	49698	13.25	3
0	49699	13.25	5
0	49700	13.25	3
0	49701	13.25	5
0	49702	13.25	8
0	49703	13.25	5
0	49704	13.25	3
0	49705	13.25	5
0	49706	13.25	3
0	49707	13.25	1
0	49708	13.25	1
0	49965	13.3	3
0	49966	13.3	5
0	49967	13.3	3
0	49968	13.3	5
0	49969	13.3	8
0	49970	13.3	5
0	49971	13.3	3
0	49972	13.3	5
0	49973	13.3	3
0	49974	13.3	1
0	49975	13.3	1
0	49979	13.3	3
0	49980	13.3	5
0	49981	13.3	3
0	49982	13.3	5
0	49983	13.3	8
0	49984	13.3	5
0	49985	13.3	3
0	49986	13.3	5
0	49987	13.3	3
0	49988	13.3	1
0	49989	13.3	1
0	50286	13.35	3
0	50287	13.35	5
0	50288	13.35	3
0	50289	13.35	5
0	50290	13.35	8
0	50291	13.35	5
0	50292	13.35	3
0	50293	13.35	5
0	50294	13.35	3
0	50295	13.35	1
0	50296	13.35	1
0	50459	13.4	3
0	50460	13.4	5
0	50461	13.4	3
0	50462	13.4	5
0	50463	13.4	8
0	50464	13.4	5
0	50465	13.4	3
0	50466	13.4	5
0	50467	13.4	3
0	50468	13.4	1
0	50469	13.4	1
0	50473	13.4	3
0	50474	13.4	5
0	50475	13.4	3
0	50476	13.4	5
0	50477	13.4	8
0	50478	13.4	5
0	50479	13.4	3
0	50480	13.4	5
0	50481	13.4	3
0	50482	13.4	1
0	50483	13.4	1
0	50640	13.45	3
0	50641	13.45	5
0	50642	13.45	3
0	50643	13.45	5
0	50644	13.45	8
0	50645	13.45	5
0	50646	13.45	3
0	50647	13.45	5
0	50648	13.45	3
0	50649	13.45	1
0	50650	13.45	1
0	50879	13.5	3
0	50880	13.5	5
0	50881	13.5	3
0	50882	13.5	5
0	50883	13.5	8
0	50884	13.5	5
0	50885	13.5	3
0	50886	13.5	5
0	50887	13.5	3
0	50888	13.5	1
0	50889	13.5	1
0	50893	13.5	3
0	50894	13.5	5
0	50895	13.5	3
0	50896	13.5	5
0	50897	13.5	8
0	50898	13.5	5
0	50899	13.5	3
0	50900	13.5	5
0	50901	13.5	3
0	50902	13.5	1
0	50903	13.5	1
0	51042	13.55	3
0	51043	13.55	5
0	51044	13.55	3
0	51045	13.55	5
0	51046	13.55	8
0	51047	13.55	5
0	51048	13.55	3
0	51049	13.55	5
0	51050	13.55	3
0	51051	13.55	1
0	51052	13.55	1
0	51164	13.6	3
0	51165	13.6	5
0	51166	13.6	3
0	51167	13.6	5
0	51168	13.6	8
0	51169	13.6	5
0	51170	13.6	3
0	51171	13.6	5
0	51172	13.6	3
0	51173	13.6	1
0	51174	13.6	1
0	51178	13.6	3
0	51179	13.6	5
0	51180	13.6	3
0	51181	13.6	5
0	51182	13.6	8
0	51183	13.6	5
0	51184	13.6	3
0	51185	13.6	5
0	51186	13.6	3
0	51187	13.6	1
0	51188	13.6	1
0	51322	13.65	3
0	51323	13.65	5
0	51324	13.65	3
0	51325	13.65	5
0	51326	13.65	8
0	51327	13.65	5
0	51328	13.65	3
0	51329	13.65	5
0	51330	13.65	3
0	51331	13.65	1
0	51332	13.65	1
0	51497	13.7	3
0	51498	13.7	5
0	51499	13.7	3
0	51500	13.7	5
0	51501	13.7	8
0	51502	13.7	5
0	51503	13.7	3
0	51504	13.7	5
0	51505	13.7	3
0	51506	13.7	1
0	51507	13.7	1
0	51511	13.7	3
0	51512	13.7	5
0	51513	13.7	3
0	51514	13.7	5
0	51515	13.7	8
0	51516	13.7	5
0	51517	13.7	3
0	51518	13.7	5
0	51519	13.7	3
0	51520	13.7	1
0	51521	13.7	1
0	51785	13.75	3
0	51786	13.75	5
0	51787	13.75	3
0	51788	13.75	5
0	51789	13.75	8
0	51790	13.75	5
0	51791	13.75	3
0	51792	13.75	5
0	51793	13.75	3
0	51794	13.75	1
0	51795	13.75	1
0	52045	13.8	3
0	52046	13.8	5
0	52047	13.8	3
0	52048	13.8	5
0	52049	13.8	8
0	52050	13.8	5
0	52051	13.8	3
0	52052	13.8	5
0	52053	13.8	3
0	52054	13.8	1
0	52055	13.8	1
0	52059	13.8	3
0	52060	13.8	5
0	52061	13.8	3
0	52062	13.8	5
0	52063	13.8	8
0	52064	13.8	5
0	52065	13.8	3
0	52066	13.8	5
0	52067	13.8	3
0	52068	13.8	1
0	52069	13.8	1
0	52266	13.85	3
0	52267	13.85	5
0	52268	13.85	3
0	52269	13.85	5
0	52270	13.85	8
0	52271	13.85	5
0	52272	13.85	3
0	52273	13.85	5
0	52274	13.85	3
0	52275	13.85	1
0	52276	13.85	1
0	52497	13.9	3
0	52498	13.9	5
0	52499	13.9	3
0	52500	13.9	5
0	52501	13.9	8
0	52502	13.9	5
0	52503	13.9	3
0	52504	13.9	5
0	52505	13.9	3
0	52506	13.9	1
0	52507	13.9	1
0	52511	13.9	3
0	52512	13.9	5
0	52513	13.9	3
0	52514	13.9	5
0	52515	13.9	8
0	52516	13.9	5
0	52517	13.9	3
0	52518	13.9	5
0	52519	13.9	3
0	52520	13.9	1
0	52521	13.9	1
0	52724	13.95	3
0	52725	13.95	5
0	52726	13.95	3
0	52727	13.95	5
0	52728	13.95	8
0	52729	13.95	5
0	52730	13.95	3
0	52731	13.95	5
0	52732	13.95	3
0	52733	13.95	1
0	52734	13.95	1
0	52863	14	3
0	52864	14	5
0	52865	14	3
0	52866	14	5
0	52867	14	8
0	52868	14	5
0	52869	14	3
0	52870	14	5
0	52871	14	3
0	52872	14	1
0	52873	14	1
0	52877	14	3
0	52878	14	5
0	52879	14	3
0	52880	14	5
0	52881	14	8
0	52882	14	5
0	52883	14	3
0	52884	14	5
0	52885	14	3
0	52886	14	1
0	52887	14	1
0	53157	14.05	3
0	53158	14.05	5
0	53159	14.05	3
0	53160	14.05	5
0	53161	14.05	8
0	53162	14.05	5
0	53163	14.05	3
0	53164	14.05	5
0	53165	14.05	3
0	53166	14.05	1
0	53167	14.05	1
0	53290	14.1	3
0	53291	14.1	5
0	53292	14.1	3
0	53293	14.1	5
0	53294	14.1	8
0	53295	14.1	5
0	53296	14.1	3
0	53297	14.1	5
0	53298	14.1	3
0	53299	14.1	1
0	53300	14.1	1
0	53304	14.1	3
0	53305	14.1	5
0	53306	14.1	3
0	53307	14.1	5
0	53308	14.1	8
0	53309	14.1	5
0	53310	14.1	3
0	53311	14.1	5
0	53312	14.1	3
0	53313	14.1	1
0	53314	14.1	1
0	53460	14.15	3
0	53461	14.15	5
0	53462	14.15	3
0	53463	14.15	5
0	53464	14.15	8
0	53465	14.15	5
0	53466	14.15	3
0	53467	14.15	5
0	53468	14.15	3
0	53469	14.15	1
0	53470	14.15	1
0	53605	14.2	3
0	53606	14.2	5
0	53607	14.2	3
0	53608	14.2	5
0	53609	14.2	8
0	53610	14.2	5
0	53611	14.2	3
0	53612	14.2	5
0	53613	14.2	3
0	53614	14.2	1
0	53615	14.2	1
0	53619	14.2	3
0	53620	14.2	5
0	53621	14.2	3
0	53622	14.2	5
0	53623	14.2	8
0	53624	14.2	5
0	53625	14.2	3
0	53626	14.2	5
0	53627	14.2	3
0	53628	14.2	1
0	53629	14.2	1
0	53768	14.25	3
0	53769	14.25	5
0	53770	14.25	3
0	53771	14.25	5
0	53772	14.25	8
0	53773	14.25	5
0	53774	14.25	3
0	53775	14.25	5
0	53776	14.25	3
0	53777	14.25	1
0	53778	14.25	1
0	53956	14.3	3
0	53957	14.3	5
0	53958	14.3	3
0	53959	14.3	5
0	53960	14.3	8
0	53961	14.3	5
0	53962	14.3	3
0	53963	14.3	5
0	53964	14.3	3
0	53965	14.3	1
0	53966	14.3	1
0	53970	14.3	3
0	53971	14.3	5
0	53972	14.3	3
0	53973	14.3	5
0	53974	14.3	8
0	53975	14.3	5
0	53976	14.3	3
0	53977	14.3	5
0	53978	14.3	3
0	53979	14.3	1
0	53980	14.3	1
0	54226	14.35	3
0	54227	14.35	5
0	54228	14.35	3
0	54229	14.35	5
0	54230	14.35	8
0	54231	14.35	5
0	54232	14.35	3
0	54233	14.35	5
0	54234	14.35	3
0	54235	14.35	1
0	54236	14.35	1
0	54382	14.4	3
0	54383	14.4	5
0	54384	14.4	3
0	54385	14.4	5
0	54386	14.4	8
0	54387	14.4	5
0	54388	14.4	3
0	54389	14.4	5
0	54390	14.4	3
0	54391	14.4	1
0	54392	14.4	1
0	54396	14.4	3
0	54397	14.4	5
0	54398	14.4	3
0	54399	14.4	5
0	54400	14.4	8
0	54401	14.4	5
0	54402	14.4	3
0	54403	14.4	5
0	54404	14.4	3
0	54405	14.4	1
0	54406	14.4	1
0	54677	14.45	3
0	54678	14.45	5
0	54679	14.45	3
0	54680	14.45	5
0	54681	14.45	8
0	54682	14.45	5
0	54683	14.45	3
0	54684	14.45	5
0	54685	14.45	3
0	54686	14.45	1
0	54687	14.45	1
0	54885	14.5	3
0	54886	14.5	5
0	54887	14.5	3
0	54888	14.5	5
0	54889	14.5	8
0	54890	14.5	5
0	54891	14.5	3
0	54892	14.5	5
0	54893	14.5	3
0	54894	14.5	1
0	54895	14.5	1
0	54899	14.5	3
0	54900	14.5	5
0	54901	14.5	3
0	54902	14.5	5
0	54903	14.5	8
0	54904	14.5	5
0	54905	14.5	3
0	54906	14.5	5
0	54907	14.5	3
0	54908	14.5	1
0	54909	14.5	1
0	55131	14.55	3
0	55132	14.55	5
0	55133	14.55	3
0	55134	14.55	5
0	55135	14.55	8
0	55136	14.55	5
0	55137	14.55	3
0	55138	14.55	5
0	55139	14.55	3
0	55140	14.55	1
0	55141	14.55	1
0	55497	14.6	3
0	55498	14.6	5
0	55499	14.6	3
0	55500	14.6	5
0	55501	14.6	8
0	55502	14.6	5
0	55503	14.6	3
0	55504	14.6	5
0	55505	14.6	3
0	55506	14.6	1
0	55507	14.6	1
0	55511	14.6	3
0	55512	14.6	5
0	55513	14.6	3
0	55514	14.6	5
0	55515	14.6	8
0	55516	14.6	5
0	55517	14.6	3
0	55518	14.6	5
0	55519	14.6	3
0	55520	14.6	1
0	55521	14.6	1
0	55719	14.65	3
0	55720	14.65	5
0	55721	14.65	3
0	55722	14.65	5
0	55723	14.65	8
0	55724	14.65	5
0	55725	14.65	3
0	55726	14.65	5
0	55727	14.65	3
0	55728	14.65	1
0	55729	14.65	1
0	55903	14.7	3
0	55904	14.7	5
0	55905	14.7	3
0	55906	14.7	5
0	55907	14.7	8
0	55908	14.7	5
0	55909	14.7	3
0	55910	14.7	5
0	55911	14.7	3
0	55912	14.7	1
0	55913	14.7	1
0	55917	14.7	3
0	55918	14.7	5
0	55919	14.7	3
0	55920	14.7	5
0	55921	14.7	8
0	55922	14.7	5
0	55923	14.7	3
0	55924	14.7	5
0	55925	14.7	3
0	55926	14.7	1
0	55927	14.7	1
0	56130	14.75	3
0	56131	14.75	5
0	56132	14.75	3
0	56133	14.75	5
0	56134	14.75	8
0	56135	14.75	5
0	56136	14.75	3
0	56137	14.75	5
0	56138	14.75	3
0	56139	14.75	1
0	56140	14.75	1
0	56246	14.8	3
0	56247	14.8	5
0	56248	14.8	3
0	56249	14.8	5
0	56250	14.8	8
0	56251	14.8	5
0	56252	14.8	3
0	56253	14.8	5
0	56254	14.8	3
0	56255	14.8	1
0	56256	14.8	1
0	56260	14.8	3
0	56261	14.8	5
0	56262	14.8	3
0	56263	14.8	5
0	56264	14.8	8
0	56265	14.8	5
0	56266	14.8	3
0	56267	14.8	5
0	56268	14.8	3
0	56269	14.8	1
0	56270	14.8	1
0	56473	14.85	3
0	56474	14.85	5
0	56475	14.85	3
0	56476	14.85	5
0	56477	14.85	8
0	56478	14.85	5
0	56479	14.85	3
0	56480	14.85	5
0	56481	14.85	3
0	56482	14.85	1
0	56483	14.85	1
0	56686	14.9	3
0	56687	14.9	5
0	56688	14.9	3
0	56689	14.9	5
0	56690	14.9	8
0	56691	14.9	5
0	56692	14.9	3
0	56693	14.9	5
0	56694	14.9	3
0	56695	14.9	1
0	56696	14.9	1
0	56700	14.9	3
0	56701	14.9	5
0	56702	14.9	3
0	56703	14.9	5
0	56704	14.9	8
0	56705	14.9	5
0	56706	14.9	3
0	56707	14.9	5
0	56708	14.9	3
0	56709	14.9	1
0	56710	14.9	1
0	56904	14.95	3
0	56905	14.95	5
0	56906	14.95	3
0	56907	14.95	5
0	56908	14.95	8
0	56909	14.95	5
0	56910	14.95	3
0	56911	14.95	5
0	56912	14.95	3
0	56913	14.95	1
0	56914	14.95	1
0	57151	15	3
0	57152	15	5
0	57153	15	3
0	57154	15	5
0	57155	15	8
0	57156	15	5
0	57157	15	3
0	57158	15	5
0	57159	15	3
0	57160	15	1
0	57161	15	1
0	57165	15	3
0	57166	15	5
0	57167	15	3
0	57168	15	5
0	57169	15	8
0	57170	15	5
0	57171	15	3
0	57172	15	5
0	57173	15	3
0	57174	15	1
0	57175	15	1
0	57372	15.05	3
0	57373	15.05	5
0	57374	15.05	3
0	57375	15.05	5
0	57376	15.05	8
0	57377	15.05	5
0	57378	15.05	3
0	57379	15.05	5
0	57380	15.05	3
0	57381	15.05	1
0	57382	15.05	1
0	57548	15.1	3
0	57549	15.1	5
0	57550	15.1	3
0	57551	15.1	5
0	57552	15.1	8
0	57553	15.1	5
0	57554	15.1	3
0	57555	15.1	5
0	57556	15.1	3
0	57557	15.1	1
0	57558	15.1	1
0	57562	15.1	3
0	57563	15.1	5
0	57564	15.1	3
0	57565	15.1	5
0	57566	15.1	8
0	57567	15.1	5
0	57568	15.1	3
0	57569	15.1	5
0	57570	15.1	3
0	57571	15.1	1
0	57572	15.1	1
0	57871	15.15	3
0	57872	15.15	5
0	57873	15.15	3
0	57874	15.15	5
0	57875	15.15	8
0	57876	15.15	5
0	57877	15.15	3
0	57878	15.15	5
0	57879	15.15	3
0	57880	15.15	1
0	57881	15.15	1
0	57973	15.2	3
0	57974	15.2	5
0	57975	15.2	3
0	57976	15.2	5
0	57977	15.2	8
0	57978	15.2	5
0	57979	15.2	3
0	57980	15.2	5
0	57981	15.2	3
0	57982	15.2	1
0	57983	15.2	1
0	57987	15.2	3
0	57988	15.2	5
0	57989	15.2	3
0	57990	15.2	5
0	57991	15.2	8
0	57992	15.2	5
0	57993	15.2	3
0	57994	15.2	5
0	57995	15.2	3
0	57996	15.2	1
0	57997	15.2	1
0	58131	15.25	3
0	58132	15.25	5
0	58133	15.25	3
0	58134	15.25	5
0	58135	15.25	8
0	58136	15.25	5
0	58137	15.25	3
0	58138	15.25	5
0	58139	15.25	3
0	58140	15.25	1
0	58141	15.25	1
0	58258	15.3	3
0	58259	15.3	5
0	58260	15.3	3
0	58261	15.3	5
0	58262	15.3	8
0	58263	15.3	5
0	58264	15.3	3
0	58265	15.3	5
0	58266	15.3	3
0	58267	15.3	1
0	58268	15.3	1
0	58272	15.3	3
0	58273	15.3	5
0	58274	15.3	3
0	58275	15.3	5
0	58276	15.3	8
0	58277	15.3	5
0	58278	15.3	3
0	58279	15.3	5
0	58280	15.3	3
0	58281	15.3	1
0	58282	15.3	1
0	58410	15.35	3
0	58411	15.35	5
0	58412	15.35	3
0	58413	15.35	5
0	58414	15.35	8
0	58415	15.35	5
0	58416	15.35	3
0	58417	15.35	5
0	58418	15.35	3
0	58419	15.35	1
0	58420	15.35	1
0	58603	15.4	3
0	58604	15.4	5
0	58605	15.4	3
0	58606	15.4	5
0	58607	15.4	8
0	58608	15.4	5
0	58609	15.4	3
0	58610	15.4	5
0	58611	15.4	3
0	58612	15.4	1
0	58613	15.4	1
0	58617	15.4	3
0	58618	15.4	5
0	58619	15.4	3
0	58620	15.4	5
0	58621	15.4	8
0	58622	15.4	5
0	58623	15.4	3
0	58624	15.4	5
0	58625	15.4	3
0	58626	15.4	1
0	58627	15.4	1
0	58855	15.45	3
0	58856	15.45	5
0	58857	15.45	3
0	58858	15.45	5
0	58859	15.45	8
0	58860	15.45	5
0	58861	15.45	3
0	58862	15.45	5
0	58863	15.45	3
0	58864	15.45	1
0	58865	15.45	1
0	58987	15.5	3
0	58988	15.5	5
0	58989	15.5	3
0	58990	15.5	5
0	58991	15.5	8
0	58992	15.5	5
0	58993	15.5	3
0	58994	15.5	5
0	58995	15.5	3
0	58996	15.5	1
0	58997	15.5	1
0	59001	15.5	3
0	59002	15.5	5
0	59003	15.5	3
0	59004	15.5	5
0	59005	15.5	8
0	59006	15.5	5
0	59007	15.5	3
0	59008	15.5	5
0	59009	15.5	3
0	59010	15.5	1
0	59011	15.5	1
0	59260	15.55	3
0	59261	15.55	5
0	59262	15.55	3
0	59263	15.55	5
0	59264	15.55	8
0	59265	15.55	5
0	59266	15.55	3
0	59267	15.55	5
0	59268	15.55	3
0	59269	15.55	1
0	59270	15.55	1
0	59422	15.6	3
0	59423	15.6	5
0	59424	15.6	3
0	59425	15.6	5
0	59426	15.6	8
0	59427	15.6	5
0	59428	15.6	3
0	59429	15.6	5
0	59430	15.6	3
0	59431	15.6	1
0	59432	15.6	1
0	59436	15.6	3
0	59437	15.6	5
0	59438	15.6	3
0	59439	15.6	5
0	59440	15.6	8
0	59441	15.6	5
0	59442	15.6	3
0	59443	15.6	5
0	59444	15.6	3
0	59445	15.6	1
0	59446	15.6	1
0	59623	15.65	3
0	59624	15.65	5
0	59625	15.65	3
0	59626	15.65	5
0	59627	15.65	8
0	59628	15.65	5
0	59629	15.65	3
0	59630	15.65	5
0	59631	15.65	3
0	59632	15.65	1
0	59633	15.65	1
0	59831	15.7	3
0	59832	15.7	5
0	59833	15.7	3
0	59834	15.7	5
0	59835	15.7	8
0	59836	15.7	5
0	59837	15.7	3
0	59838	15.7	5
0	59839	15.7	3
0	59840	15.7	1
0	59841	15.7	1
0	59845	15.7	3
0	59846	15.7	5
0	59847	15.7	3
0	59848	15.7	5
0	59849	15.7	8
0	59850	15.7	5
0	59851	15.7	3
0	59852	15.7	5
0	59853	15.7	3
0	59854	15.7	1
0	59855	15.7	1
0	59966	15.75	3
0	59967	15.75	5
0	59968	15.75	3
0	59969	15.75	5
0	59970	15.75	8
0	59971	15.75	5
0	59972	15.75	3
0	59973	15.75	5
0	59974	15.75	3
0	59975	15.75	1
0	59976	15.75	1
0	60088	15.8	3
0	60089	15.8	5
0	60090	15.8	3
0	60091	15.8	5
0	60092	15.8	8
0	60093	15.8	5
0	60094	15.8	3
0	60095	15.8	5
0	60096	15.8	3
0	60097	15.8	1
0	60098	15.8	1
0	60102	15.8	3
0	60103	15.8	5
0	60104	15.8	3
0	60105	15.8	5
0	60106	15.8	8
0	60107	15.8	5
0	60108	15.8	3
0	60109	15.8	5
0	60110	15.8	3
0	60111	15.8	1
0	60112	15.8	1
0	60269	15.85	3
0	60270	15.85	5
0	60271	15.85	3
0	60272	15.85	5
0	60273	15.85	8
0	60274	15.85	5
0	60275	15.85	3
0	60276	15.85	5
0	60277	15.85	3
0	60278	15.85	1
0	60279	15.85	1
0	60368	15.9	3
0	60369	15.9	5
0	60370	15.9	3
0	60371	15.9	5
0	60372	15.9	8
0	60373	15.9	5
0	60374	15.9	3
0	60375	15.9	5
0	60376	15.9	3
0	60377	15.9	1
0	60378	15.9	1
0	60382	15.9	3
0	60383	15.9	5
0	60384	15.9	3
0	60385	15.9	5
0	60386	15.9	8
0	60387	15.9	5
0	60388	15.9	3
0	60389	15.9	5
0	60390	15.9	3
0	60391	15.9	1
0	60392	15.9	1
0	60554	15.95	3
0	60555	15.95	5
0	60556	15.95	3
0	60557	15.95	5
0	60558	15.95	8
0	60559	15.95	5
0	60560	15.95	3
0	60561	15.95	5
0	60562	15.95	3
0	60563	15.95	1
0	60564	15.95	1
0	60750	16	3
0	60751	16	5
0	60752	16	3
0	60753	16	5
0	60754	16	8
0	60755	16	5
0	60756	16	3
0	60757	16	5
0	60758	16	3
0	60759	16	1
0	60760	16	1
0	60764	16	3
0	60765	16	5
0	60766	16	3
0	60767	16	5
0	60768	16	8
0	60769	16	5
0	60770	16	3
0	60771	16	5
0	60772	16	3
0	60773	16	1
0	60774	16	1
0	60908	16.05	3
0	60909	16.05	5
0	60910	16.05	3
0	60911	16.05	5
0	60912	16.05	8
0	60913	16.05	5
0	60914	16.05	3
0	60915	16.05	5
0	60916	16.05	3
0	60917	16.05	1
0	60918	16.05	1
0	61109	16.1	3
0	61110	16.1	5
0	61111	16.1	3
0	61112	16.1	5
0	61113	16.1	8
0	61114	16.1	5
0	61115	16.1	3
0	61116	16.1	5
0	61117	16.1	3
0	61118	16.1	1
0	61119	16.1	1
0	61123	16.1	3
0	61124	16.1	5
0	61125	16.1	3
0	61126	16.1	5
0	61127	16.1	8
0	61128	16.1	5
0	61129	16.1	3
0	61130	16.1	5
0	61131	16.1	3
0	61132	16.1	1
0	61133	16.1	1
0	61329	16.15	3
0	61330	16.15	5
0	61331	16.15	3
0	61332	16.15	5
0	61333	16.15	8
0	61334	16.15	5
0	61335	16.15	3
0	61336	16.15	5
[...]
0	539064	136.5	3
0	539065	136.5	1
0	539066	136.5	6
0	539067	136.5	6
0	539068	136.5	3
0	539069	136.5	5
0	539070	136.5	3
0	539071	136.5	8
0	539072	136.5	1
0	539282	136.55	3
0	539283	136.55	5
0	539284	136.55	3
0	539285	136.55	1
0	539286	136.55	6
0	539287	136.55	6
0	539288	136.55	3
0	539289	136.55	5
0	539290	136.55	3
0	539291	136.55	8
0	539292	136.55	1
0	539435	136.6	3
0	539436	136.6	5
0	539437	136.6	3
0	539438	136.6	1
0	539439	136.6	6
0	539440	136.6	6
0	539441	136.6	3
0	539442	136.6	5
0	539443	136.6	3
0	539444	136.6	8
0	539445	136.6	1
0	539446	136.6	3
0	539447	136.6	5
0	539448	136.6	3
0	539449	136.6	1
0	539450	136.6	6
0	539451	136.6	6
0	539452	136.6	3
0	539453	136.6	5
0	539454	136.6	3
0	539455	136.6	8
0	539456	136.6	1
0	539636	136.65	3
0	539637	136.65	5
0	539638	136.65	3
0	539639	136.65	1
0	539640	136.65	6
0	539641	136.65	6
0	539642	136.65	3
0	539643	136.65	5
0	539644	136.65	3
0	539645	136.65	8
0	539646	136.65	1
0	539809	136.7	3
0	539810	136.7	5
0	539811	136.7	3
0	539812	136.7	1
0	539813	136.7	6
0	539814	136.7	6
0	539815	136.7	3
0	539816	136.7	5
0	539817	136.7	3
0	539818	136.7	8
0	539819	136.7	1
0	539820	136.7	3
0	539821	136.7	5
0	539822	136.7	3
0	539823	136.7	1
0	539824	136.7	6
0	539825	136.7	6
0	539826	136.7	3
0	539827	136.7	5
0	539828	136.7	3
0	539829	136.7	8
0	539830	136.7	1
0	539987	136.75	3
0	539988	136.75	5
0	539989	136.75	3
0	539990	136.75	1
0	539991	136.75	6
0	539992	136.75	6
0	539993	136.75	3
0	539994	136.75	5
0	539995	136.75	3
0	539996	136.75	8
0	539997	136.75	1
0	540132	136.8	3
0	540133	136.8	5
0	540134	136.8	3
0	540135	136.8	1
0	540136	136.8	6
0	540137	136.8	6
0	540138	136.8	3
0	540139	136.8	5
0	540140	136.8	3
0	540141	136.8	8
0	540142	136.8	1
0	540143	136.8	3
0	540144	136.8	5
0	540145	136.8	3
0	540146	136.8	1
0	540147	136.8	6
0	540148	136.8	6
0	540149	136.8	3
0	540150	136.8	5
0	540151	136.8	3
0	540152	136.8	8
0	540153	136.8	1
0	540333	136.85	3
0	540334	136.85	5
0	540335	136.85	3
0	540336	136.85	1
0	540337	136.85	6
0	540338	136.85	6
0	540339	136.85	3
0	540340	136.85	5
0	540341	136.85	3
0	540342	136.85	8
0	540343	136.85	1
0	540460	136.9	3
0	540461	136.9	5
0	540462	136.9	3
0	540463	136.9	1
0	540464	136.9	6
0	540465	136.9	6
0	540466	136.9	3
0	540467	136.9	5
0	540468	136.9	3
0	540469	136.9	8
0	540470	136.9	1
0	540471	136.9	3
0	540472	136.9	5
0	540473	136.9	3
0	540474	136.9	1
0	540475	136.9	6
0	540476	136.9	6
0	540477	136.9	3
0	540478	136.9	5
0	540479	136.9	3
0	540480	136.9	8
0	540481	136.9	1
0	540661	136.95	3
0	540662	136.95	5
0	540663	136.95	3
0	540664	136.95	1
0	540665	136.95	6
0	540666	136.95	6
0	540667	136.95	3
0	540668	136.95	5
0	540669	136.95	3
0	540670	136.95	8
0	540671	136.95	1
0	540840	137	3
0	540841	137	5
0	540842	137	3
0	540843	137	1
0	540844	137	6
0	540845	137	6
0	540846	137	3
0	540847	137	5
0	540848	137	3
0	540849	137	8
0	540850	137	1
0	540851	137	3
0	540852	137	5
0	540853	137	3
0	540854	137	1
0	540855	137	6
0	540856	137	6
0	540857	137	3
0	540858	137	5
0	540859	137	3
0	540860	137	8
0	540861	137	1
0	540995	137.05	3
0	540996	137.05	5
0	540997	137.05	3
0	540998	137.05	1
0	540999	137.05	6
0	541000	137.05	6
0	541001	137.05	3
0	541002	137.05	5
0	541003	137.05	3
0	541004	137.05	8
0	541005	137.05	1
0	541165	137.1	3
0	541166	137.1	5
0	541167	137.1	3
0	541168	137.1	1
0	541169	137.1	6
0	541170	137.1	6
0	541171	137.1	3
0	541172	137.1	5
0	541173	137.1	3
0	541174	137.1	8
0	541175	137.1	1
0	541176	137.1	3
0	541177	137.1	5
0	541178	137.1	3
0	541179	137.1	1
0	541180	137.1	6
0	541181	137.1	6
0	541182	137.1	3
0	541183	137.1	5
0	541184	137.1	3
0	541185	137.1	8
0	541186	137.1	1
0	541364	137.15	3
0	541365	137.15	5
0	541366	137.15	3
0	541367	137.15	1
0	541368	137.15	6
0	541369	137.15	6
0	541370	137.15	3
0	541371	137.15	5
0	541372	137.15	3
0	541373	137.15	8
0	541374	137.15	1
0	541532	137.2	3
0	541533	137.2	5
0	541534	137.2	3
0	541535	137.2	1
0	541536	137.2	6
0	541537	137.2	6
0	541538	137.2	3
0	541539	137.2	5
0	541540	137.2	3
0	541541	137.2	8
0	541542	137.2	1
0	541543	137.2	3
0	541544	137.2	5
0	541545	137.2	3
0	541546	137.2	1
0	541547	137.2	6
0	541548	137.2	6
0	541549	137.2	3
0	541550	137.2	5
0	541551	137.2	3
0	541552	137.2	8
0	541553	137.2	1
0	541715	137.25	3
0	541716	137.25	5
0	541717	137.25	3
0	541718	137.25	1
0	541719	137.25	6
0	541720	137.25	6
0	541721	137.25	3
0	541722	137.25	5
0	541723	137.25	3
0	541724	137.25	8
0	541725	137.25	1
0	541877	137.3	3
0	541878	137.3	5
0	541879	137.3	3
0	541880	137.3	1
0	541881	137.3	6
0	541882	137.3	6
0	541883	137.3	3
0	541884	137.3	5
0	541885	137.3	3
0	541886	137.3	8
0	541887	137.3	1
0	541888	137.3	3
0	541889	137.3	5
0	541890	137.3	3
0	541891	137.3	1
0	541892	137.3	6
0	541893	137.3	6
0	541894	137.3	3
0	541895	137.3	5
0	541896	137.3	3
0	541897	137.3	8
0	541898	137.3	1
0	542078	137.35	3
0	542079	137.35	5
0	542080	137.35	3
0	542081	137.35	1
0	542082	137.35	6
0	542083	137.35	6
0	542084	137.35	3
0	542085	137.35	5
0	542086	137.35	3
0	542087	137.35	8
0	542088	137.35	1
0	542240	137.4	3
0	542241	137.4	5
0	542242	137.4	3
0	542243	137.4	1
0	542244	137.4	6
0	542245	137.4	6
0	542246	137.4	3
0	542247	137.4	5
0	542248	137.4	3
0	542249	137.4	8
0	542250	137.4	1
0	542251	137.4	3
0	542252	137.4	5
0	542253	137.4	3
0	542254	137.4	1
0	542255	137.4	6
0	542256	137.4	6
0	542257	137.4	3
0	542258	137.4	5
0	542259	137.4	3
0	542260	137.4	8
0	542261	137.4	1
0	542395	137.45	3
0	542396	137.45	5
0	542397	137.45	3
0	542398	137.45	1
0	542399	137.45	6
0	542400	137.45	6
0	542401	137.45	3
0	542402	137.45	5
0	542403	137.45	3
0	542404	137.45	8
0	542405	137.45	1
0	542603	137.5	3
0	542604	137.5	5
0	542605	137.5	3
0	542606	137.5	1
0	542607	137.5	6
0	542608	137.5	6
0	542609	137.5	3
0	542610	137.5	5
0	542611	137.5	3
0	542612	137.5	8
0	542613	137.5	1
0	542614	137.5	3
0	542615	137.5	5
0	542616	137.5	3
0	542617	137.5	1
0	542618	137.5	6
0	542619	137.5	6
0	542620	137.5	3
0	542621	137.5	5
0	542622	137.5	3
0	542623	137.5	8
0	542624	137.5	1
0	542809	137.55	3
0	542810	137.55	5
0	542811	137.55	3
0	542812	137.55	1
0	542813	137.55	6
0	542814	137.55	6
0	542815	137.55	3
0	542816	137.55	5
0	542817	137.55	3
0	542818	137.55	8
0	542819	137.55	1
0	542931	137.6	3
0	542932	137.6	5
0	542933	137.6	3
0	542934	137.6	1
0	542935	137.6	6
0	542936	137.6	6
0	542937	137.6	3
0	542938	137.6	5
0	542939	137.6	3
0	542940	137.6	8
0	542941	137.6	1
0	542942	137.6	3
0	542943	137.6	5
0	542944	137.6	3
0	542945	137.6	1
0	542946	137.6	6
0	542947	137.6	6
0	542948	137.6	3
0	542949	137.6	5
0	542950	137.6	3
0	542951	137.6	8
0	542952	137.6	1
0	543136	137.65	3
0	543137	137.65	5
0	543138	137.65	3
0	543139	137.65	1
0	543140	137.65	6
0	543141	137.65	6
0	543142	137.65	3
0	543143	137.65	5
0	543144	137.65	3
0	543145	137.65	8
0	543146	137.65	1
0	543287	137.7	3
0	543288	137.7	5
0	543289	137.7	3
0	543290	137.7	1
0	543291	137.7	6
0	543292	137.7	6
0	543293	137.7	3
0	543294	137.7	5
0	543295	137.7	3
0	543296	137.7	8
0	543297	137.7	1
0	543298	137.7	3
0	543299	137.7	5
0	543300	137.7	3
0	543301	137.7	1
0	543302	137.7	6
0	543303	137.7	6
0	543304	137.7	3
0	543305	137.7	5
0	543306	137.7	3
0	543307	137.7	8
0	543308	137.7	1
0	543493	137.75	3
0	543494	137.75	5
0	543495	137.75	3
0	543496	137.75	1
0	543497	137.75	6
0	543498	137.75	6
0	543499	137.75	3
0	543500	137.75	5
0	543501	137.75	3
0	543502	137.75	8
0	543503	137.75	1
0	543638	137.8	3
0	543639	137.8	5
0	543640	137.8	3
0	543641	137.8	1
0	543642	137.8	6
0	543643	137.8	6
0	543644	137.8	3
0	543645	137.8	5
0	543646	137.8	3
0	543647	137.8	8
0	543648	137.8	1
0	543649	137.8	3
0	543650	137.8	5
0	543651	137.8	3
0	543652	137.8	1
0	543653	137.8	6
0	543654	137.8	6
0	543655	137.8	3
0	543656	137.8	5
0	543657	137.8	3
0	543658	137.8	8
0	543659	137.8	1
0	543780	137.85	3
0	543781	137.85	5
0	543782	137.85	3
0	543783	137.85	1
0	543784	137.85	6
0	543785	137.85	6
0	543786	137.85	3
0	543787	137.85	5
0	543788	137.85	3
0	543789	137.85	8
0	543790	137.85	1
0	543930	137.9	3
0	543931	137.9	5
0	543932	137.9	3
0	543933	137.9	1
0	543934	137.9	6
0	543935	137.9	6
0	543936	137.9	3
0	543937	137.9	5
0	543938	137.9	3
0	543939	137.9	8
0	543940	137.9	1
0	543941	137.9	3
0	543942	137.9	5
0	543943	137.9	3
0	543944	137.9	1
0	543945	137.9	6
0	543946	137.9	6
0	543947	137.9	3
0	543948	137.9	5
0	543949	137.9	3
0	543950	137.9	8
0	543951	137.9	1
0	544108	137.95	3
0	544109	137.95	5
0	544110	137.95	3
0	544111	137.95	1
0	544112	137.95	6
0	544113	137.95	6
0	544114	137.95	3
0	544115	137.95	5
0	544116	137.95	3
0	544117	137.95	8
0	544118	137.95	1
0	544207	138	3
0	544208	138	5
0	544209	138	3
0	544210	138	1
0	544211	138	6
0	544212	138	6
0	544213	138	3
0	544214	138	5
0	544215	138	3
0	544216	138	8
0	544217	138	1
0	544218	138	3
0	544219	138	5
0	544220	138	3
0	544221	138	1
0	544222	138	6
0	544223	138	6
0	544224	138	3
0	544225	138	5
0	544226	138	3
0	544227	138	8
0	544228	138	1
0	544459	138.05	3
0	544460	138.05	5
0	544461	138.05	3
0	544462	138.05	1
0	544463	138.05	6
0	544464	138.05	6
0	544465	138.05	3
0	544466	138.05	5
0	544467	138.05	3
0	544468	138.05	8
0	544469	138.05	1
0	544644	138.1	3
0	544645	138.1	5
0	544646	138.1	3
0	544647	138.1	1
0	544648	138.1	6
0	544649	138.1	6
0	544650	138.1	3
0	544651	138.1	5
0	544652	138.1	3
0	544653	138.1	8
0	544654	138.1	1
0	544655	138.1	3
0	544656	138.1	5
0	544657	138.1	3
0	544658	138.1	1
0	544659	138.1	6
0	544660	138.1	6
0	544661	138.1	3
0	544662	138.1	5
0	544663	138.1	3
0	544664	138.1	8
0	544665	138.1	1
0	544791	138.15	3
0	544792	138.15	5
0	544793	138.15	3
0	544794	138.15	1
0	544795	138.15	6
0	544796	138.15	6
0	544797	138.15	3
0	544798	138.15	5
0	544799	138.15	3
0	544800	138.15	8
0	544801	138.15	1
0	545007	138.2	3
0	545008	138.2	5
0	545009	138.2	3
0	545010	138.2	1
0	545011	138.2	6
0	545012	138.2	6
0	545013	138.2	3
0	545014	138.2	5
0	545015	138.2	3
0	545016	138.2	8
0	545017	138.2	1
0	545018	138.2	3
0	545019	138.2	5
0	545020	138.2	3
0	545021	138.2	1
0	545022	138.2	6
0	545023	138.2	6
0	545024	138.2	3
0	545025	138.2	5
0	545026	138.2	3
0	545027	138.2	8
0	545028	138.2	1
0	545165	138.25	3
0	545166	138.25	5
0	545167	138.25	3
0	545168	138.25	1
0	545169	138.25	6
0	545170	138.25	6
0	545171	138.25	3
0	545172	138.25	5
0	545173	138.25	3
0	545174	138.25	8
0	545175	138.25	1
0	545304	138.3	3
0	545305	138.3	5
0	545306	138.3	3
0	545307	138.3	1
0	545308	138.3	6
0	545309	138.3	6
0	545310	138.3	3
0	545311	138.3	5
0	545312	138.3	3
0	545313	138.3	8
0	545314	138.3	1
0	545315	138.3	3
0	545316	138.3	5
0	545317	138.3	3
0	545318	138.3	1
0	545319	138.3	6
0	545320	138.3	6
0	545321	138.3	3
0	545322	138.3	5
0	545323	138.3	3
0	545324	138.3	8
0	545325	138.3	1
0	545482	138.35	3
0	545483	138.35	5
0	545484	138.35	3
0	545485	138.35	1
0	545486	138.35	6
0	545487	138.35	6
0	545488	138.35	3
0	545489	138.35	5
0	545490	138.35	3
0	545491	138.35	8
0	545492	138.35	1
0	545581	138.4	3
0	545582	138.4	5
0	545583	138.4	3
0	545584	138.4	1
0	545585	138.4	6
0	545586	138.4	6
0	545587	138.4	3
0	545588	138.4	5
0	545589	138.4	3
0	545590	138.4	8
0	545591	138.4	1
0	545592	138.4	3
0	545593	138.4	5
0	545594	138.4	3
0	545595	138.4	1
0	545596	138.4	6
0	545597	138.4	6
0	545598	138.4	3
0	545599	138.4	5
0	545600	138.4	3
0	545601	138.4	8
0	545602	138.4	1
0	545770	138.45	3
0	545771	138.45	5
0	545772	138.45	3
0	545773	138.45	1
0	545774	138.45	6
0	545775	138.45	6
0	545776	138.45	3
0	545777	138.45	5
0	545778	138.45	3
0	545779	138.45	8
0	545780	138.45	1
0	545879	138.5	3
0	545880	138.5	5
0	545881	138.5	3
0	545882	138.5	1
0	545883	138.5	6
0	545884	138.5	6
0	545885	138.5	3
0	545886	138.5	5
0	545887	138.5	3
0	545888	138.5	8
0	545889	138.5	1
0	545890	138.5	3
0	545891	138.5	5
0	545892	138.5	3
0	545893	138.5	1
0	545894	138.5	6
0	545895	138.5	6
0	545896	138.5	3
0	545897	138.5	5
0	545898	138.5	3
0	545899	138.5	8
0	545900	138.5	1
0	546011	138.55	3
0	546012	138.55	5
0	546013	138.55	3
0	546014	138.55	1
0	546015	138.55	6
0	546016	138.55	6
0	546017	138.55	3
0	546018	138.55	5
0	546019	138.55	3
0	546020	138.55	8
0	546021	138.55	1
0	546235	138.6	3
0	546236	138.6	5
0	546237	138.6	3
0	546238	138.6	1
0	546239	138.6	6
0	546240	138.6	6
0	546241	138.6	3
0	546242	138.6	5
0	546243	138.6	3
0	546244	138.6	8
0	546245	138.6	1
0	546246	138.6	3
0	546247	138.6	5
0	546248	138.6	3
0	546249	138.6	1
0	546250	138.6	6
0	546251	138.6	6
0	546252	138.6	3
0	546253	138.6	5
0	546254	138.6	3
0	546255	138.6	8
0	546256	138.6	1
0	546413	138.65	3
0	546414	138.65	5
0	546415	138.65	3
0	546416	138.65	1
0	546417	138.65	6
0	546418	138.65	6
0	546419	138.65	3
0	546420	138.65	5
0	546421	138.65	3
0	546422	138.65	8
0	546423	138.65	1
0	546517	138.7	3
0	546518	138.7	5
0	546519	138.7	3
0	546520	138.7	1
0	546521	138.7	6
0	546522	138.7	6
0	546523	138.7	3
0	546524	138.7	5
0	546525	138.7	3
0	546526	138.7	8
0	546527	138.7	1
0	546528	138.7	3
0	546529	138.7	5
0	546530	138.7	3
0	546531	138.7	1
0	546532	138.7	6
0	546533	138.7	6
0	546534	138.7	3
0	546535	138.7	5
0	546536	138.7	3
0	546537	138.7	8
0	546538	138.7	1
0	546746	138.75	3
0	546747	138.75	5
0	546748	138.75	3
0	546749	138.75	1
0	546750	138.75	6
0	546751	138.75	6
0	546752	138.75	3
0	546753	138.75	5
0	546754	138.75	3
0	546755	138.75	8
0	546756	138.75	1
0	546845	138.8	3
0	546846	138.8	5
0	546847	138.8	3
0	546848	138.8	1
0	546849	138.8	6
0	546850	138.8	6
0	546851	138.8	3
0	546852	138.8	5
0	546853	138.8	3
0	546854	138.8	8
0	546855	138.8	1
0	546856	138.8	3
0	546857	138.8	5
0	546858	138.8	3
0	546859	138.8	1
0	546860	138.8	6
0	546861	138.8	6
0	546862	138.8	3
0	546863	138.8	5
0	546864	138.8	3
0	546865	138.8	8
0	546866	138.8	1
0	546982	138.85	3
0	546983	138.85	5
0	546984	138.85	3
0	546985	138.85	1
0	546986	138.85	6
0	546987	138.85	6
0	546988	138.85	3
0	546989	138.85	5
0	546990	138.85	3
0	546991	138.85	8
0	546992	138.85	1
0	547127	138.9	3
0	547128	138.9	5
0	547129	138.9	3
0	547130	138.9	1
0	547131	138.9	6
0	547132	138.9	6
0	547133	138.9	3
0	547134	138.9	5
0	547135	138.9	3
0	547136	138.9	8
0	547137	138.9	1
0	547138	138.9	3
0	547139	138.9	5
0	547140	138.9	3
0	547141	138.9	1
0	547142	138.9	6
0	547143	138.9	6
0	547144	138.9	3
0	547145	138.9	5
0	547146	138.9	3
0	547147	138.9	8
0	547148	138.9	1
0	547259	138.95	3
0	547260	138.95	5
0	547261	138.95	3
0	547262	138.95	1
0	547263	138.95	6
0	547264	138.95	6
0	547265	138.95	3
0	547266	138.95	5
0	547267	138.95	3
0	547268	138.95	8
0	547269	138.95	1
0	547404	139	3
0	547405	139	5
0	547406	139	3
0	547407	139	1
0	547408	139	6
0	547409	139	6
0	547410	139	3
0	547411	139	5
0	547412	139	3
0	547413	139	8
0	547414	139	1
0	547415	139	3
0	547416	139	5
0	547417	139	3
0	547418	139	1
0	547419	139	6
0	547420	139	6
0	547421	139	3
0	547422	139	5
0	547423	139	3
0	547424	139	8
0	547425	139	1
0	547582	139.05	3
0	547583	139.05	5
0	547584	139.05	3
0	547585	139.05	1
0	547586	139.05	6
0	547587	139.05	6
0	547588	139.05	3
0	547589	139.05	5
0	547590	139.05	3
0	547591	139.05	8
0	547592	139.05	1
0	547686	139.1	3
0	547687	139.1	5
0	547688	139.1	3
0	547689	139.1	1
0	547690	139.1	6
0	547691	139.1	6
0	547692	139.1	3
0	547693	139.1	5
0	547694	139.1	3
0	547695	139.1	8
0	547696	139.1	1
0	547697	139.1	3
0	547698	139.1	5
0	547699	139.1	3
0	547700	139.1	1
0	547701	139.1	6
0	547702	139.1	6
0	547703	139.1	3
0	547704	139.1	5
0	547705	139.1	3
0	547706	139.1	8
0	547707	139.1	1
0	547927	139.15	3
0	547928	139.15	5
0	547929	139.15	3
0	547930	139.15	1
0	547931	139.15	6
0	547932	139.15	6
0	547933	139.15	3
0	547934	139.15	5
0	547935	139.15	3
0	547936	139.15	8
0	547937	139.15	1
0	548095	139.2	3
0	548096	139.2	5
0	548097	139.2	3
0	548098	139.2	1
0	548099	139.2	6
0	548100	139.2	6
0	548101	139.2	3
0	548102	139.2	5
0	548103	139.2	3
0	548104	139.2	8
0	548105	139.2	1
0	548106	139.2	3
0	548107	139.2	5
0	548108	139.2	3
0	548109	139.2	1
0	548110	139.2	6
0	548111	139.2	6
0	548112	139.2	3
0	548113	139.2	5
0	548114	139.2	3
0	548115	139.2	8
0	548116	139.2	1
0	548244	139.25	3
0	548245	139.25	5
0	548246	139.25	3
0	548247	139.25	1
0	548248	139.25	6
0	548249	139.25	6
0	548250	139.25	3
0	548251	139.25	5
0	548252	139.25	3
0	548253	139.25	8
0	548254	139.25	1
0	548458	139.3	3
0	548459	139.3	5
0	548460	139.3	3
0	548461	139.3	1
0	548462	139.3	6
0	548463	139.3	6
0	548464	139.3	3
0	548465	139.3	5
0	548466	139.3	3
0	548467	139.3	8
0	548468	139.3	1
0	548469	139.3	3
0	548470	139.3	5
0	548471	139.3	3
0	548472	139.3	1
0	548473	139.3	6
0	548474	139.3	6
0	548475	139.3	3
0	548476	139.3	5
0	548477	139.3	3
0	548478	139.3	8
0	548479	139.3	1
0	548641	139.35	3
0	548642	139.35	5
0	548643	139.35	3
0	548644	139.35	1
0	548645	139.35	6
0	548646	139.35	6
0	548647	139.35	3
0	548648	139.35	5
0	548649	139.35	3
0	548650	139.35	8
0	548651	139.35	1
0	548740	139.4	3
0	548741	139.4	5
0	548742	139.4	3
0	548743	139.4	1
0	548744	139.4	6
0	548745	139.4	6
0	548746	139.4	3
0	548747	139.4	5
0	548748	139.4	3
0	548749	139.4	8
0	548750	139.4	1
0	548751	139.4	3
0	548752	139.4	5
0	548753	139.4	3
0	548754	139.4	1
0	548755	139.4	6
0	548756	139.4	6
0	548757	139.4	3
0	548758	139.4	5
0	548759	139.4	3
0	548760	139.4	8
0	548761	139.4	1
0	548923	139.45	3
0	548924	139.45	5
0	548925	139.45	3
0	548926	139.45	1
0	548927	139.45	6
0	548928	139.45	6
0	548929	139.45	3
0	548930	139.45	5
0	548931	139.45	3
0	548932	139.45	8
0	548933	139.45	1
0	549068	139.5	3
0	549069	139.5	5
0	549070	139.5	3
0	549071	139.5	1
0	549072	139.5	6
0	549073	139.5	6
0	549074	139.5	3
0	549075	139.5	5
0	549076	139.5	3
0	549077	139.5	8
0	549078	139.5	1
0	549079	139.5	3
0	549080	139.5	5
0	549081	139.5	3
0	549082	139.5	1
0	549083	139.5	6
0	549084	139.5	6
0	549085	139.5	3
0	549086	139.5	5
0	549087	139.5	3
0	549088	139.5	8
0	549089	139.5	1
0	549246	139.55	3
0	549247	139.55	5
0	549248	139.55	3
0	549249	139.55	1
0	549250	139.55	6
0	549251	139.55	6
0	549252	139.55	3
0	549253	139.55	5
0	549254	139.55	3
0	549255	139.55	8
0	549256	139.55	1
0	549385	139.6	3
0	549386	139.6	5
0	549387	139.6	3
0	549388	139.6	1
0	549389	139.6	6
0	549390	139.6	6
0	549391	139.6	3
0	549392	139.6	5
0	549393	139.6	3
0	549394	139.6	8
0	549395	139.6	1
0	549396	139.6	3
0	549397	139.6	5
0	549398	139.6	3
0	549399	139.6	1
0	549400	139.6	6
0	549401	139.6	6
0	549402	139.6	3
0	549403	139.6	5
0	549404	139.6	3
0	549405	139.6	8
0	549406	139.6	1
0	549534	139.65	3
0	549535	139.65	5
0	549536	139.65	3
0	549537	139.65	1
0	549538	139.65	6
0	549539	139.65	6
0	549540	139.65	3
0	549541	139.65	5
0	549542	139.65	3
0	549543	139.65	8
0	549544	139.65	1
0	549758	139.7	3
0	549759	139.7	5
0	549760	139.7	3
0	549761	139.7	1
0	549762	139.7	6
0	549763	139.7	6
0	549764	139.7	3
0	549765	139.7	5
0	549766	139.7	3
0	549767	139.7	8
0	549768	139.7	1
0	549769	139.7	3
0	549770	139.7	5
0	549771	139.7	3
0	549772	139.7	1
0	549773	139.7	6
0	549774	139.7	6
0	549775	139.7	3
0	549776	139.7	5
0	549777	139.7	3
0	549778	139.7	8
0	549779	139.7	1
0	549964	139.75	3
0	549965	139.75	5
0	549966	139.75	3
0	549967	139.75	1
0	549968	139.75	6
0	549969	139.75	6
0	549970	139.75	3
0	549971	139.75	5
0	549972	139.75	3
0	549973	139.75	8
0	549974	139.75	1
0	550091	139.8	3
0	550092	139.8	5
0	550093	139.8	3
0	550094	139.8	1
0	550095	139.8	6
0	550096	139.8	6
0	550097	139.8	3
0	550098	139.8	5
0	550099	139.8	3
0	550100	139.8	8
0	550101	139.8	1
0	550102	139.8	3
0	550103	139.8	5
0	550104	139.8	3
0	550105	139.8	1
0	550106	139.8	6
0	550107	139.8	6
0	550108	139.8	3
0	550109	139.8	5
0	550110	139.8	3
0	550111	139.8	8
0	550112	139.8	1
0	550343	139.85	3
0	550344	139.85	5
0	550345	139.85	3
0	550346	139.85	1
0	550347	139.85	6
0	550348	139.85	6
0	550349	139.85	3
0	550350	139.85	5
0	550351	139.85	3
0	550352	139.85	8
0	550353	139.85	1
0	550511	139.9	3
0	550512	139.9	5
0	550513	139.9	3
0	550514	139.9	1
0	550515	139.9	6
0	550516	139.9	6
0	550517	139.9	3
0	550518	139.9	5
0	550519	139.9	3
0	550520	139.9	8
0	550521	139.9	1
0	550522	139.9	3
0	550523	139.9	5
0	550524	139.9	3
0	550525	139.9	1
0	550526	139.9	6
0	550527	139.9	6
0	550528	139.9	3
0	550529	139.9	5
0	550530	139.9	3
0	550531	139.9	8
0	550532	139.9	1
0	550671	139.95	3
0	550672	139.95	5
0	550673	139.95	3
0	550674	139.95	1
0	550675	139.95	6
0	550676	139.95	6
0	550677	139.95	3
0	550678	139.95	5
0	550679	139.95	3
0	550680	139.95	8
0	550681	139.95	1
0	550827	140	3
0	550828	140	5
0	550829	140	3
0	550830	140	1
0	550831	140	6
0	550832	140	6
0	550833	140	3
0	550834	140	5
0	550835	140	3
0	550836	140	8
0	550837	140	1
0	550838	140	3
0	550839	140	5
0	550840	140	3
0	550841	140	1
0	550842	140	6
0	550843	140	6
0	550844	140	3
0	550845	140	5
0	550846	140	3
0	550847	140	8
0	550848	140	1

