version 2
run D_08_10-0-20191016-14:15:19-14028
attr configname D_08_10
attr datetime 20191016-14:15:19
attr experiment D_08_10
attr inifile SimV3.ini
attr iterationvars ""
attr iterationvarsf ""
attr measurement ""
attr network NetworkTormV2
attr processid 14028
attr repetition 0
attr replication #0
attr resultdir results
attr runnumber 0
attr seedset 0
param **.mobility.traceFile "\"pathsGW/D.movements\""
param **.numNodes 11
param **.application.dataGenerationInterval 1s
param **.application.dataSizeInBytes 10
param **.application.ttl 999999s
param **application.nodesThatGen false
param **application.nodesGenMsg "\"\""
param **application.startMultipleMsg false
param **application.numMultipleMsg 100
param **application.hopsListSize 50
param **.application.endGeneratingMsg 99s
param **.routingLayer "\"RoutingLqeGw\""
param **.routing.maximumCacheSize 5000byte
param **.routing.maximumHopCount 25
param **.routing.useTTL false
param **.routing.waitBFsend 0.5
param **.routing.max_age 999999s
param **.routing.gateway_list "\"\""
param **.routing.actual_gateway "\"\""
param **.routing.gwCheckPeriod 5s
param **.neighboring.resetGPeriod 10s
param **.wirelessIfc.wirelessRange 40m
param **.numNodes 2
param **.application.usedRNG 1
param **.application.dataGenerationInterval 1s
param **.application.dataSizeInBytes 10
param **.application.ttl 999999s
param **application.destinationAddr "\"Wf:00:00:00:00:02\""
param **application.destinationBTAddr "\"Bt:00:00:00:00:02\""
param **application.nodesThatGen true
param **application.nodesGenMsg "\"0\""
param **application.startMultipleMsg true
param **application.numMultipleMsg 100
param **application.hopsListSize 50
param **.application.endGeneratingMsg 999999s
param **.routingLayer "\"RoutingLqeGw\""
param **.routing.maximumCacheSize 5000byte
param **.routing.maximumHopCount 25
param **.routing.useTTL false
param **.routing.waitBFsend 0.5
param **.routing.max_age 999999s
param **.routing.gateway_list "\"\""
param **.routing.actual_gateway "\"\""
param **.routing.gwCheckPeriod 5s
param **.neighboring.antiEntropyInterval 500ms
param **.neighboring.maximumRandomBackoffDuration 1s
param **.neighboring.delayPerDataMsg 0.1
param **neighboring.usedRNG 2
param **.neighboring.GWAddr "\"Wf:00:00:00:00:02\""
param **.neighboring.sendWifiFirst true
param **.neighboring.maxLengthGraph 20
param **.neighboring.max_age 999999s
param **.neighboring.max_absent_time 1s
param **.wirelessIfc.wirelessRange 40m
param **.wirelessIfc.neighbourScanInterval 50ms
param **.wirelessIfc.bandwidthBitRate 100000bps
param **.wirelessIfc.wirelessHeaderSize 32byte
param **.wirelessIfc.minSSI -90
param **.wirelessIfc.limitQueueTime 400ms
param **.wirelessIfc.my_limit_rate 0bps
param **.bluetoothIfc.wirelessRange 40m
param **.bluetoothIfc.neighbourScanInterval 100ms
param **.bluetoothIfc.bandwidthBitRate 100000bps
param **.bluetoothIfc.wirelessHeaderSize 16byte
param **.bluetoothIfc.minSSI -90
param **.mobilityType "\"BonnMotionMobility\""
param **.mobility.traceFile "\"paths/Moves2.movements\""
param **.mobility.is3D false
param **.mobility.nodeId -1

vector 0 NetworkTormV2 neighbourhoodSize:vector ETV
attr source neighbourhoodSize
vector 1 NetworkTormV2 deliveryRatio:vector ETV
attr source sum(totalDataBytesReceived)/sum(totalDataBytesReceivableByAllNodes)
vector 2 NetworkTormV2 dataBytesReceivedSum:vector ETV
attr source sum(dataBytesReceived)
vector 3 NetworkTormV2 totalBytesReceivedSum:vector ETV
attr source sum(totalBytesReceived)
0	34	0.05	3
0	35	0.05	5
0	36	0.05	3
0	37	0.05	5
0	38	0.05	8
0	39	0.05	5
0	40	0.05	3
0	41	0.05	5
0	42	0.05	3
0	43	0.05	1
0	44	0.05	1
0	134	0.1	3
0	136	0.1	5
0	138	0.1	3
0	140	0.1	5
0	142	0.1	8
0	144	0.1	5
0	146	0.1	3
0	148	0.1	5
0	150	0.1	3
0	152	0.1	1
0	154	0.1	1
0	158	0.1	3
0	159	0.1	5
0	160	0.1	3
0	161	0.1	5
0	162	0.1	8
0	163	0.1	5
0	164	0.1	3
0	165	0.1	5
0	166	0.1	3
0	167	0.1	1
0	168	0.1	1
0	290	0.15	3
0	291	0.15	5
0	292	0.15	3
0	293	0.15	5
0	294	0.15	8
0	295	0.15	5
0	296	0.15	3
0	297	0.15	5
0	298	0.15	3
0	299	0.15	1
0	300	0.15	1
0	389	0.2	3
0	390	0.2	5
0	391	0.2	3
0	392	0.2	5
0	393	0.2	8
0	394	0.2	5
0	395	0.2	3
0	396	0.2	5
0	397	0.2	3
0	398	0.2	1
0	399	0.2	1
0	403	0.2	3
0	404	0.2	5
0	405	0.2	3
0	406	0.2	5
0	407	0.2	8
0	408	0.2	5
0	409	0.2	3
0	410	0.2	5
0	411	0.2	3
0	412	0.2	1
0	413	0.2	1
0	524	0.25	3
0	525	0.25	5
0	526	0.25	3
0	527	0.25	5
0	528	0.25	8
0	529	0.25	5
0	530	0.25	3
0	531	0.25	5
0	532	0.25	3
0	533	0.25	1
0	534	0.25	1
0	623	0.3	3
0	624	0.3	5
0	625	0.3	3
0	626	0.3	5
0	627	0.3	8
0	628	0.3	5
0	629	0.3	3
0	630	0.3	5
0	631	0.3	3
0	632	0.3	1
0	633	0.3	1
0	637	0.3	3
0	638	0.3	5
0	639	0.3	3
0	640	0.3	5
0	641	0.3	8
0	642	0.3	5
0	643	0.3	3
0	644	0.3	5
0	645	0.3	3
0	646	0.3	1
0	647	0.3	1
0	758	0.35	3
0	759	0.35	5
0	760	0.35	3
0	761	0.35	5
0	762	0.35	8
0	763	0.35	5
0	764	0.35	3
0	765	0.35	5
0	766	0.35	3
0	767	0.35	1
0	768	0.35	1
0	857	0.4	3
0	858	0.4	5
0	859	0.4	3
0	860	0.4	5
0	861	0.4	8
0	862	0.4	5
0	863	0.4	3
0	864	0.4	5
0	865	0.4	3
0	866	0.4	1
0	867	0.4	1
0	871	0.4	3
0	872	0.4	5
0	873	0.4	3
0	874	0.4	5
0	875	0.4	8
0	876	0.4	5
0	877	0.4	3
0	878	0.4	5
0	879	0.4	3
0	880	0.4	1
0	881	0.4	1
0	992	0.45	3
0	993	0.45	5
0	994	0.45	3
0	995	0.45	5
0	996	0.45	8
0	997	0.45	5
0	998	0.45	3
0	999	0.45	5
0	1000	0.45	3
0	1001	0.45	1
0	1002	0.45	1
0	1091	0.5	3
0	1092	0.5	5
0	1093	0.5	3
0	1094	0.5	5
0	1095	0.5	8
0	1096	0.5	5
0	1097	0.5	3
0	1098	0.5	5
0	1099	0.5	3
0	1100	0.5	1
0	1101	0.5	1
0	1105	0.5	3
0	1106	0.5	5
0	1107	0.5	3
0	1108	0.5	5
0	1109	0.5	8
0	1110	0.5	5
0	1111	0.5	3
0	1112	0.5	5
0	1113	0.5	3
0	1114	0.5	1
0	1115	0.5	1
0	1226	0.55	3
0	1227	0.55	5
0	1228	0.55	3
0	1229	0.55	5
0	1230	0.55	8
0	1231	0.55	5
0	1232	0.55	3
0	1233	0.55	5
0	1234	0.55	3
0	1235	0.55	1
0	1236	0.55	1
0	1325	0.6	3
0	1326	0.6	5
0	1327	0.6	3
0	1328	0.6	5
0	1329	0.6	8
0	1330	0.6	5
0	1331	0.6	3
0	1332	0.6	5
0	1333	0.6	3
0	1334	0.6	1
0	1335	0.6	1
0	1339	0.6	3
0	1340	0.6	5
0	1341	0.6	3
0	1342	0.6	5
0	1343	0.6	8
0	1344	0.6	5
0	1345	0.6	3
0	1346	0.6	5
0	1347	0.6	3
0	1348	0.6	1
0	1349	0.6	1
0	1460	0.65	3
0	1461	0.65	5
0	1462	0.65	3
0	1463	0.65	5
0	1464	0.65	8
0	1465	0.65	5
0	1466	0.65	3
0	1467	0.65	5
0	1468	0.65	3
0	1469	0.65	1
0	1470	0.65	1
0	1559	0.7	3
0	1560	0.7	5
0	1561	0.7	3
0	1562	0.7	5
0	1563	0.7	8
0	1564	0.7	5
0	1565	0.7	3
0	1566	0.7	5
0	1567	0.7	3
0	1568	0.7	1
0	1569	0.7	1
0	1573	0.7	3
0	1574	0.7	5
0	1575	0.7	3
0	1576	0.7	5
0	1577	0.7	8
0	1578	0.7	5
0	1579	0.7	3
0	1580	0.7	5
0	1581	0.7	3
0	1582	0.7	1
0	1583	0.7	1
0	1694	0.75	3
0	1695	0.75	5
0	1696	0.75	3
0	1697	0.75	5
0	1698	0.75	8
0	1699	0.75	5
0	1700	0.75	3
0	1701	0.75	5
0	1702	0.75	3
0	1703	0.75	1
0	1704	0.75	1
0	1793	0.8	3
0	1794	0.8	5
0	1795	0.8	3
0	1796	0.8	5
0	1797	0.8	8
0	1798	0.8	5
0	1799	0.8	3
0	1800	0.8	5
0	1801	0.8	3
0	1802	0.8	1
0	1803	0.8	1
0	1807	0.8	3
0	1808	0.8	5
0	1809	0.8	3
0	1810	0.8	5
0	1811	0.8	8
0	1812	0.8	5
0	1813	0.8	3
0	1814	0.8	5
0	1815	0.8	3
0	1816	0.8	1
0	1817	0.8	1
0	1928	0.85	3
0	1929	0.85	5
0	1930	0.85	3
0	1931	0.85	5
0	1932	0.85	8
0	1933	0.85	5
0	1934	0.85	3
0	1935	0.85	5
0	1936	0.85	3
0	1937	0.85	1
0	1938	0.85	1
0	2027	0.9	3
0	2028	0.9	5
0	2029	0.9	3
0	2030	0.9	5
0	2031	0.9	8
0	2032	0.9	5
0	2033	0.9	3
0	2034	0.9	5
0	2035	0.9	3
0	2036	0.9	1
0	2037	0.9	1
0	2041	0.9	3
0	2042	0.9	5
0	2043	0.9	3
0	2044	0.9	5
0	2045	0.9	8
0	2046	0.9	5
0	2047	0.9	3
0	2048	0.9	5
0	2049	0.9	3
0	2050	0.9	1
0	2051	0.9	1
0	2162	0.95	3
0	2163	0.95	5
0	2164	0.95	3
0	2165	0.95	5
0	2166	0.95	8
0	2167	0.95	5
0	2168	0.95	3
0	2169	0.95	5
0	2170	0.95	3
0	2171	0.95	1
0	2172	0.95	1
0	2261	1	3
0	2262	1	5
0	2263	1	3
0	2264	1	5
0	2265	1	8
0	2266	1	5
0	2267	1	3
0	2268	1	5
0	2269	1	3
0	2270	1	1
0	2271	1	1
0	2275	1	3
0	2276	1	5
0	2277	1	3
0	2278	1	5
0	2279	1	8
0	2280	1	5
0	2281	1	3
0	2282	1	5
0	2283	1	3
0	2284	1	1
0	2285	1	1
0	2396	1.05	3
0	2397	1.05	5
0	2398	1.05	3
0	2399	1.05	5
0	2400	1.05	8
0	2401	1.05	5
0	2402	1.05	3
0	2403	1.05	5
0	2404	1.05	3
0	2405	1.05	1
0	2406	1.05	1
0	2506	1.1	3
0	2507	1.1	5
0	2508	1.1	3
0	2509	1.1	5
0	2510	1.1	8
0	2511	1.1	5
0	2512	1.1	3
0	2513	1.1	5
0	2514	1.1	3
0	2515	1.1	1
0	2516	1.1	1
0	2520	1.1	3
0	2521	1.1	5
0	2522	1.1	3
0	2523	1.1	5
0	2524	1.1	8
0	2525	1.1	5
0	2526	1.1	3
0	2527	1.1	5
0	2528	1.1	3
0	2529	1.1	1
0	2530	1.1	1
0	3102	1.15	3
0	3103	1.15	5
0	3104	1.15	3
0	3105	1.15	5
0	3106	1.15	8
0	3107	1.15	5
0	3108	1.15	3
0	3109	1.15	5
0	3110	1.15	3
0	3111	1.15	1
0	3112	1.15	1
0	3519	1.2	3
0	3520	1.2	5
0	3521	1.2	3
0	3522	1.2	5
0	3523	1.2	8
0	3524	1.2	5
0	3525	1.2	3
0	3526	1.2	5
0	3527	1.2	3
0	3528	1.2	1
0	3529	1.2	1
0	3533	1.2	3
0	3534	1.2	5
0	3535	1.2	3
0	3536	1.2	5
0	3537	1.2	8
0	3538	1.2	5
0	3539	1.2	3
0	3540	1.2	5
0	3541	1.2	3
0	3542	1.2	1
0	3543	1.2	1
0	3738	1.25	3
0	3739	1.25	5
0	3740	1.25	3
0	3741	1.25	5
0	3742	1.25	8
0	3743	1.25	5
0	3744	1.25	3
0	3745	1.25	5
0	3746	1.25	3
0	3747	1.25	1
0	3748	1.25	1
0	3855	1.3	3
0	3856	1.3	5
0	3857	1.3	3
0	3858	1.3	5
0	3859	1.3	8
0	3860	1.3	5
0	3861	1.3	3
0	3862	1.3	5
0	3863	1.3	3
0	3864	1.3	1
0	3865	1.3	1
0	3869	1.3	3
0	3870	1.3	5
0	3871	1.3	3
0	3872	1.3	5
0	3873	1.3	8
0	3874	1.3	5
0	3875	1.3	3
0	3876	1.3	5
0	3877	1.3	3
0	3878	1.3	1
0	3879	1.3	1
0	3990	1.35	3
0	3991	1.35	5
0	3992	1.35	3
0	3993	1.35	5
0	3994	1.35	8
0	3995	1.35	5
0	3996	1.35	3
0	3997	1.35	5
0	3998	1.35	3
0	3999	1.35	1
0	4000	1.35	1
0	4089	1.4	3
0	4090	1.4	5
0	4091	1.4	3
0	4092	1.4	5
0	4093	1.4	8
0	4094	1.4	5
0	4095	1.4	3
0	4096	1.4	5
0	4097	1.4	3
0	4098	1.4	1
0	4099	1.4	1
0	4103	1.4	3
0	4104	1.4	5
0	4105	1.4	3
0	4106	1.4	5
0	4107	1.4	8
0	4108	1.4	5
0	4109	1.4	3
0	4110	1.4	5
0	4111	1.4	3
0	4112	1.4	1
0	4113	1.4	1
0	4224	1.45	3
0	4225	1.45	5
0	4226	1.45	3
0	4227	1.45	5
0	4228	1.45	8
0	4229	1.45	5
0	4230	1.45	3
0	4231	1.45	5
0	4232	1.45	3
0	4233	1.45	1
0	4234	1.45	1
0	4323	1.5	3
0	4324	1.5	5
0	4325	1.5	3
0	4326	1.5	5
0	4327	1.5	8
0	4328	1.5	5
0	4329	1.5	3
0	4330	1.5	5
0	4331	1.5	3
0	4332	1.5	1
0	4333	1.5	1
0	4337	1.5	3
0	4338	1.5	5
0	4339	1.5	3
0	4340	1.5	5
0	4341	1.5	8
0	4342	1.5	5
0	4343	1.5	3
0	4344	1.5	5
0	4345	1.5	3
0	4346	1.5	1
0	4347	1.5	1
0	4458	1.55	3
0	4459	1.55	5
0	4460	1.55	3
0	4461	1.55	5
0	4462	1.55	8
0	4463	1.55	5
0	4464	1.55	3
0	4465	1.55	5
0	4466	1.55	3
0	4467	1.55	1
0	4468	1.55	1
0	4557	1.6	3
0	4558	1.6	5
0	4559	1.6	3
0	4560	1.6	5
0	4561	1.6	8
0	4562	1.6	5
0	4563	1.6	3
0	4564	1.6	5
0	4565	1.6	3
0	4566	1.6	1
0	4567	1.6	1
0	4571	1.6	3
0	4572	1.6	5
0	4573	1.6	3
0	4574	1.6	5
0	4575	1.6	8
0	4576	1.6	5
0	4577	1.6	3
0	4578	1.6	5
0	4579	1.6	3
0	4580	1.6	1
0	4581	1.6	1
0	4692	1.65	3
0	4693	1.65	5
0	4694	1.65	3
0	4695	1.65	5
0	4696	1.65	8
0	4697	1.65	5
0	4698	1.65	3
0	4699	1.65	5
0	4700	1.65	3
0	4701	1.65	1
0	4702	1.65	1
0	5173	1.7	3
0	5174	1.7	5
0	5175	1.7	3
0	5176	1.7	5
0	5177	1.7	8
0	5178	1.7	5
0	5179	1.7	3
0	5180	1.7	5
0	5181	1.7	3
0	5182	1.7	1
0	5183	1.7	1
0	5187	1.7	3
0	5188	1.7	5
0	5189	1.7	3
0	5190	1.7	5
0	5191	1.7	8
0	5192	1.7	5
0	5193	1.7	3
0	5194	1.7	5
0	5195	1.7	3
0	5196	1.7	1
0	5197	1.7	1
0	5560	1.75	3
0	5561	1.75	5
0	5562	1.75	3
0	5563	1.75	5
0	5564	1.75	8
0	5565	1.75	5
0	5566	1.75	3
0	5567	1.75	5
0	5568	1.75	3
0	5569	1.75	1
0	5570	1.75	1
0	5755	1.8	3
0	5756	1.8	5
0	5757	1.8	3
0	5758	1.8	5
0	5759	1.8	8
0	5760	1.8	5
0	5761	1.8	3
0	5762	1.8	5
0	5763	1.8	3
0	5764	1.8	1
0	5765	1.8	1
0	5769	1.8	3
0	5770	1.8	5
0	5771	1.8	3
0	5772	1.8	5
0	5773	1.8	8
0	5774	1.8	5
0	5775	1.8	3
0	5776	1.8	5
0	5777	1.8	3
0	5778	1.8	1
0	5779	1.8	1
0	5890	1.85	3
0	5891	1.85	5
0	5892	1.85	3
0	5893	1.85	5
0	5894	1.85	8
0	5895	1.85	5
0	5896	1.85	3
0	5897	1.85	5
0	5898	1.85	3
0	5899	1.85	1
0	5900	1.85	1
0	6012	1.9	3
0	6013	1.9	5
0	6014	1.9	3
0	6015	1.9	5
0	6016	1.9	8
0	6017	1.9	5
0	6018	1.9	3
0	6019	1.9	5
0	6020	1.9	3
0	6021	1.9	1
0	6022	1.9	1
0	6026	1.9	3
0	6027	1.9	5
0	6028	1.9	3
0	6029	1.9	5
0	6030	1.9	8
0	6031	1.9	5
0	6032	1.9	3
0	6033	1.9	5
0	6034	1.9	3
0	6035	1.9	1
0	6036	1.9	1
0	6147	1.95	3
0	6148	1.95	5
0	6149	1.95	3
0	6150	1.95	5
0	6151	1.95	8
0	6152	1.95	5
0	6153	1.95	3
0	6154	1.95	5
0	6155	1.95	3
0	6156	1.95	1
0	6157	1.95	1
0	6246	2	3
0	6247	2	5
0	6248	2	3
0	6249	2	5
0	6250	2	8
0	6251	2	5
0	6252	2	3
0	6253	2	5
0	6254	2	3
0	6255	2	1
0	6256	2	1
0	6260	2	3
0	6261	2	5
0	6262	2	3
0	6263	2	5
0	6264	2	8
0	6265	2	5
0	6266	2	3
0	6267	2	5
0	6268	2	3
0	6269	2	1
0	6270	2	1
0	6381	2.05	3
0	6382	2.05	5
0	6383	2.05	3
0	6384	2.05	5
0	6385	2.05	8
0	6386	2.05	5
0	6387	2.05	3
0	6388	2.05	5
0	6389	2.05	3
0	6390	2.05	1
0	6391	2.05	1
0	6491	2.1	3
0	6492	2.1	5
0	6493	2.1	3
0	6494	2.1	5
0	6495	2.1	8
0	6496	2.1	5
0	6497	2.1	3
0	6498	2.1	5
0	6499	2.1	3
0	6500	2.1	1
0	6501	2.1	1
0	6505	2.1	3
0	6506	2.1	5
0	6507	2.1	3
0	6508	2.1	5
0	6509	2.1	8
0	6510	2.1	5
0	6511	2.1	3
0	6512	2.1	5
0	6513	2.1	3
0	6514	2.1	1
0	6515	2.1	1
0	6637	2.15	3
0	6638	2.15	5
0	6639	2.15	3
0	6640	2.15	5
0	6641	2.15	8
0	6642	2.15	5
0	6643	2.15	3
0	6644	2.15	5
0	6645	2.15	3
0	6646	2.15	1
0	6647	2.15	1
0	6736	2.2	3
0	6737	2.2	5
0	6738	2.2	3
0	6739	2.2	5
0	6740	2.2	8
0	6741	2.2	5
0	6742	2.2	3
0	6743	2.2	5
0	6744	2.2	3
0	6745	2.2	1
0	6746	2.2	1
0	6750	2.2	3
0	6751	2.2	5
0	6752	2.2	3
0	6753	2.2	5
0	6754	2.2	8
0	6755	2.2	5
0	6756	2.2	3
0	6757	2.2	5
0	6758	2.2	3
0	6759	2.2	1
0	6760	2.2	1
0	7278	2.25	3
0	7279	2.25	5
0	7280	2.25	3
0	7281	2.25	5
0	7282	2.25	8
0	7283	2.25	5
0	7284	2.25	3
0	7285	2.25	5
0	7286	2.25	3
0	7287	2.25	1
0	7288	2.25	1
0	7587	2.3	3
0	7588	2.3	5
0	7589	2.3	3
0	7590	2.3	5
0	7591	2.3	8
0	7592	2.3	5
0	7593	2.3	3
0	7594	2.3	5
0	7595	2.3	3
0	7596	2.3	1
0	7597	2.3	1
0	7601	2.3	3
0	7602	2.3	5
0	7603	2.3	3
0	7604	2.3	5
0	7605	2.3	8
0	7606	2.3	5
0	7607	2.3	3
0	7608	2.3	5
0	7609	2.3	3
0	7610	2.3	1
0	7611	2.3	1
0	7758	2.35	3
0	7759	2.35	5
0	7760	2.35	3
0	7761	2.35	5
0	7762	2.35	8
0	7763	2.35	5
0	7764	2.35	3
0	7765	2.35	5
0	7766	2.35	3
0	7767	2.35	1
0	7768	2.35	1
0	7948	2.4	3
0	7949	2.4	5
0	7950	2.4	3
0	7951	2.4	5
0	7952	2.4	8
0	7953	2.4	5
0	7954	2.4	3
0	7955	2.4	5
0	7956	2.4	3
0	7957	2.4	1
0	7958	2.4	1
0	7962	2.4	3
0	7963	2.4	5
0	7964	2.4	3
0	7965	2.4	5
0	7966	2.4	8
0	7967	2.4	5
0	7968	2.4	3
0	7969	2.4	5
0	7970	2.4	3
0	7971	2.4	1
0	7972	2.4	1
0	8106	2.45	3
0	8107	2.45	5
0	8108	2.45	3
0	8109	2.45	5
0	8110	2.45	8
0	8111	2.45	5
0	8112	2.45	3
0	8113	2.45	5
0	8114	2.45	3
0	8115	2.45	1
0	8116	2.45	1
0	8205	2.5	3
0	8206	2.5	5
0	8207	2.5	3
0	8208	2.5	5
0	8209	2.5	8
0	8210	2.5	5
0	8211	2.5	3
0	8212	2.5	5
0	8213	2.5	3
0	8214	2.5	1
0	8215	2.5	1
0	8219	2.5	3
0	8220	2.5	5
0	8221	2.5	3
0	8222	2.5	5
0	8223	2.5	8
0	8224	2.5	5
0	8225	2.5	3
0	8226	2.5	5
0	8227	2.5	3
0	8228	2.5	1
0	8229	2.5	1
0	8340	2.55	3
0	8341	2.55	5
0	8342	2.55	3
0	8343	2.55	5
0	8344	2.55	8
0	8345	2.55	5
0	8346	2.55	3
0	8347	2.55	5
0	8348	2.55	3
0	8349	2.55	1
0	8350	2.55	1
0	8439	2.6	3
0	8440	2.6	5
0	8441	2.6	3
0	8442	2.6	5
0	8443	2.6	8
0	8444	2.6	5
0	8445	2.6	3
0	8446	2.6	5
0	8447	2.6	3
0	8448	2.6	1
0	8449	2.6	1
0	8453	2.6	3
0	8454	2.6	5
0	8455	2.6	3
0	8456	2.6	5
0	8457	2.6	8
0	8458	2.6	5
0	8459	2.6	3
0	8460	2.6	5
0	8461	2.6	3
0	8462	2.6	1
0	8463	2.6	1
0	8574	2.65	3
0	8575	2.65	5
0	8576	2.65	3
0	8577	2.65	5
0	8578	2.65	8
0	8579	2.65	5
0	8580	2.65	3
0	8581	2.65	5
0	8582	2.65	3
0	8583	2.65	1
0	8584	2.65	1
0	8673	2.7	3
0	8674	2.7	5
0	8675	2.7	3
0	8676	2.7	5
0	8677	2.7	8
0	8678	2.7	5
0	8679	2.7	3
0	8680	2.7	5
0	8681	2.7	3
0	8682	2.7	1
0	8683	2.7	1
0	8687	2.7	3
0	8688	2.7	5
0	8689	2.7	3
0	8690	2.7	5
0	8691	2.7	8
0	8692	2.7	5
0	8693	2.7	3
0	8694	2.7	5
0	8695	2.7	3
0	8696	2.7	1
0	8697	2.7	1
0	8853	2.75	3
0	8854	2.75	5
0	8855	2.75	3
0	8856	2.75	5
0	8857	2.75	8
0	8858	2.75	5
0	8859	2.75	3
0	8860	2.75	5
0	8861	2.75	3
0	8862	2.75	1
0	8863	2.75	1
0	9345	2.8	3
0	9346	2.8	5
0	9347	2.8	3
0	9348	2.8	5
0	9349	2.8	8
0	9350	2.8	5
0	9351	2.8	3
0	9352	2.8	5
0	9353	2.8	3
0	9354	2.8	1
0	9355	2.8	1
0	9359	2.8	3
0	9360	2.8	5
0	9361	2.8	3
0	9362	2.8	5
0	9363	2.8	8
0	9364	2.8	5
0	9365	2.8	3
0	9366	2.8	5
0	9367	2.8	3
0	9368	2.8	1
0	9369	2.8	1
0	9642	2.85	3
0	9643	2.85	5
0	9644	2.85	3
0	9645	2.85	5
0	9646	2.85	8
0	9647	2.85	5
0	9648	2.85	3
0	9649	2.85	5
0	9650	2.85	3
0	9651	2.85	1
0	9652	2.85	1
0	9741	2.9	3
0	9742	2.9	5
0	9743	2.9	3
0	9744	2.9	5
0	9745	2.9	8
0	9746	2.9	5
0	9747	2.9	3
0	9748	2.9	5
0	9749	2.9	3
0	9750	2.9	1
0	9751	2.9	1
0	9755	2.9	3
0	9756	2.9	5
0	9757	2.9	3
0	9758	2.9	5
0	9759	2.9	8
0	9760	2.9	5
0	9761	2.9	3
0	9762	2.9	5
0	9763	2.9	3
0	9764	2.9	1
0	9765	2.9	1
0	9968	2.95	3
0	9969	2.95	5
0	9970	2.95	3
0	9971	2.95	5
0	9972	2.95	8
0	9973	2.95	5
0	9974	2.95	3
0	9975	2.95	5
0	9976	2.95	3
0	9977	2.95	1
0	9978	2.95	1
0	10089	3	3
0	10090	3	5
0	10091	3	3
0	10092	3	5
0	10093	3	8
0	10094	3	5
0	10095	3	3
0	10096	3	5
0	10097	3	3
0	10098	3	1
0	10099	3	1
0	10103	3	3
0	10104	3	5
0	10105	3	3
0	10106	3	5
0	10107	3	8
0	10108	3	5
0	10109	3	3
0	10110	3	5
0	10111	3	3
0	10112	3	1
0	10113	3	1
0	10224	3.05	3
0	10225	3.05	5
0	10226	3.05	3
0	10227	3.05	5
0	10228	3.05	8
0	10229	3.05	5
0	10230	3.05	3
0	10231	3.05	5
0	10232	3.05	3
0	10233	3.05	1
0	10234	3.05	1
0	10334	3.1	3
0	10335	3.1	5
0	10336	3.1	3
0	10337	3.1	5
0	10338	3.1	8
0	10339	3.1	5
0	10340	3.1	3
0	10341	3.1	5
0	10342	3.1	3
0	10343	3.1	1
0	10344	3.1	1
0	10348	3.1	3
0	10349	3.1	5
0	10350	3.1	3
0	10351	3.1	5
0	10352	3.1	8
0	10353	3.1	5
0	10354	3.1	3
0	10355	3.1	5
0	10356	3.1	3
0	10357	3.1	1
0	10358	3.1	1
0	10480	3.15	3
0	10481	3.15	5
0	10482	3.15	3
0	10483	3.15	5
0	10484	3.15	8
0	10485	3.15	5
0	10486	3.15	3
0	10487	3.15	5
0	10488	3.15	3
0	10489	3.15	1
0	10490	3.15	1
0	10579	3.2	3
0	10580	3.2	5
0	10581	3.2	3
0	10582	3.2	5
0	10583	3.2	8
0	10584	3.2	5
0	10585	3.2	3
0	10586	3.2	5
0	10587	3.2	3
0	10588	3.2	1
0	10589	3.2	1
0	10593	3.2	3
0	10594	3.2	5
0	10595	3.2	3
0	10596	3.2	5
0	10597	3.2	8
0	10598	3.2	5
0	10599	3.2	3
0	10600	3.2	5
0	10601	3.2	3
0	10602	3.2	1
0	10603	3.2	1
0	10714	3.25	3
0	10715	3.25	5
0	10716	3.25	3
0	10717	3.25	5
0	10718	3.25	8
0	10719	3.25	5
0	10720	3.25	3
0	10721	3.25	5
0	10722	3.25	3
0	10723	3.25	1
0	10724	3.25	1
0	10869	3.3	3
0	10870	3.3	5
0	10871	3.3	3
0	10872	3.3	5
0	10873	3.3	8
0	10874	3.3	5
0	10875	3.3	3
0	10876	3.3	5
0	10877	3.3	3
0	10878	3.3	1
0	10879	3.3	1
0	10883	3.3	3
0	10884	3.3	5
0	10885	3.3	3
0	10886	3.3	5
0	10887	3.3	8
0	10888	3.3	5
0	10889	3.3	3
0	10890	3.3	5
0	10891	3.3	3
0	10892	3.3	1
0	10893	3.3	1
0	11398	3.35	3
0	11399	3.35	5
0	11400	3.35	3
0	11401	3.35	5
0	11402	3.35	8
0	11403	3.35	5
0	11404	3.35	3
0	11405	3.35	5
0	11406	3.35	3
0	11407	3.35	1
0	11408	3.35	1
0	11590	3.4	3
0	11591	3.4	5
0	11592	3.4	3
0	11593	3.4	5
0	11594	3.4	8
0	11595	3.4	5
0	11596	3.4	3
0	11597	3.4	5
0	11598	3.4	3
0	11599	3.4	1
0	11600	3.4	1
0	11604	3.4	3
0	11605	3.4	5
0	11606	3.4	3
0	11607	3.4	5
0	11608	3.4	8
0	11609	3.4	5
0	11610	3.4	3
0	11611	3.4	5
0	11612	3.4	3
0	11613	3.4	1
0	11614	3.4	1
0	11730	3.45	3
0	11731	3.45	5
0	11732	3.45	3
0	11733	3.45	5
0	11734	3.45	8
0	11735	3.45	5
0	11736	3.45	3
0	11737	3.45	5
0	11738	3.45	3
0	11739	3.45	1
0	11740	3.45	1
0	11915	3.5	3
0	11916	3.5	5
0	11917	3.5	3
0	11918	3.5	5
0	11919	3.5	8
0	11920	3.5	5
0	11921	3.5	3
0	11922	3.5	5
0	11923	3.5	3
0	11924	3.5	1
0	11925	3.5	1
0	11929	3.5	3
0	11930	3.5	5
0	11931	3.5	3
0	11932	3.5	5
0	11933	3.5	8
0	11934	3.5	5
0	11935	3.5	3
0	11936	3.5	5
0	11937	3.5	3
0	11938	3.5	1
0	11939	3.5	1
0	12055	3.55	3
0	12056	3.55	5
0	12057	3.55	3
0	12058	3.55	5
0	12059	3.55	8
0	12060	3.55	5
0	12061	3.55	3
0	12062	3.55	5
0	12063	3.55	3
0	12064	3.55	1
0	12065	3.55	1
0	12154	3.6	3
0	12155	3.6	5
0	12156	3.6	3
0	12157	3.6	5
0	12158	3.6	8
0	12159	3.6	5
0	12160	3.6	3
0	12161	3.6	5
0	12162	3.6	3
0	12163	3.6	1
0	12164	3.6	1
0	12168	3.6	3
0	12169	3.6	5
0	12170	3.6	3
0	12171	3.6	5
0	12172	3.6	8
0	12173	3.6	5
0	12174	3.6	3
0	12175	3.6	5
0	12176	3.6	3
0	12177	3.6	1
0	12178	3.6	1
0	12289	3.65	3
0	12290	3.65	5
0	12291	3.65	3
0	12292	3.65	5
0	12293	3.65	8
0	12294	3.65	5
0	12295	3.65	3
0	12296	3.65	5
0	12297	3.65	3
0	12298	3.65	1
0	12299	3.65	1
0	12388	3.7	3
0	12389	3.7	5
0	12390	3.7	3
0	12391	3.7	5
0	12392	3.7	8
0	12393	3.7	5
0	12394	3.7	3
0	12395	3.7	5
0	12396	3.7	3
0	12397	3.7	1
0	12398	3.7	1
0	12402	3.7	3
0	12403	3.7	5
0	12404	3.7	3
0	12405	3.7	5
0	12406	3.7	8
0	12407	3.7	5
0	12408	3.7	3
0	12409	3.7	5
0	12410	3.7	3
0	12411	3.7	1
0	12412	3.7	1
0	12523	3.75	3
0	12524	3.75	5
0	12525	3.75	3
0	12526	3.75	5
0	12527	3.75	8
0	12528	3.75	5
0	12529	3.75	3
0	12530	3.75	5
0	12531	3.75	3
0	12532	3.75	1
0	12533	3.75	1
0	12622	3.8	3
0	12623	3.8	5
0	12624	3.8	3
0	12625	3.8	5
0	12626	3.8	8
0	12627	3.8	5
0	12628	3.8	3
0	12629	3.8	5
0	12630	3.8	3
0	12631	3.8	1
0	12632	3.8	1
0	12636	3.8	3
0	12637	3.8	5
0	12638	3.8	3
0	12639	3.8	5
0	12640	3.8	8
0	12641	3.8	5
0	12642	3.8	3
0	12643	3.8	5
0	12644	3.8	3
0	12645	3.8	1
0	12646	3.8	1
0	12808	3.85	3
0	12809	3.85	5
0	12810	3.85	3
0	12811	3.85	5
0	12812	3.85	8
0	12813	3.85	5
0	12814	3.85	3
0	12815	3.85	5
0	12816	3.85	3
0	12817	3.85	1
0	12818	3.85	1
0	13247	3.9	3
0	13248	3.9	5
0	13249	3.9	3
0	13250	3.9	5
0	13251	3.9	8
0	13252	3.9	5
0	13253	3.9	3
0	13254	3.9	5
0	13255	3.9	3
0	13256	3.9	1
0	13257	3.9	1
0	13261	3.9	3
0	13262	3.9	5
0	13263	3.9	3
0	13264	3.9	5
0	13265	3.9	8
0	13266	3.9	5
0	13267	3.9	3
0	13268	3.9	5
0	13269	3.9	3
0	13270	3.9	1
0	13271	3.9	1
0	13430	3.95	3
0	13431	3.95	5
0	13432	3.95	3
0	13433	3.95	5
0	13434	3.95	8
0	13435	3.95	5
0	13436	3.95	3
0	13437	3.95	5
0	13438	3.95	3
0	13439	3.95	1
0	13440	3.95	1
0	13615	4	3
0	13616	4	5
0	13617	4	3
0	13618	4	5
0	13619	4	8
0	13620	4	5
0	13621	4	3
0	13622	4	5
0	13623	4	3
0	13624	4	1
0	13625	4	1
0	13629	4	3
0	13630	4	5
0	13631	4	3
0	13632	4	5
0	13633	4	8
0	13634	4	5
0	13635	4	3
0	13636	4	5
0	13637	4	3
0	13638	4	1
0	13639	4	1
0	13819	4.05	3
0	13820	4.05	5
0	13821	4.05	3
0	13822	4.05	5
0	13823	4.05	8
0	13824	4.05	5
0	13825	4.05	3
0	13826	4.05	5
0	13827	4.05	3
0	13828	4.05	1
0	13829	4.05	1
0	13929	4.1	3
0	13930	4.1	5
0	13931	4.1	3
0	13932	4.1	5
0	13933	4.1	8
0	13934	4.1	5
0	13935	4.1	3
0	13936	4.1	5
0	13937	4.1	3
0	13938	4.1	1
0	13939	4.1	1
0	13943	4.1	3
0	13944	4.1	5
0	13945	4.1	3
0	13946	4.1	5
0	13947	4.1	8
0	13948	4.1	5
0	13949	4.1	3
0	13950	4.1	5
0	13951	4.1	3
0	13952	4.1	1
0	13953	4.1	1
0	14098	4.15	3
0	14099	4.15	5
0	14100	4.15	3
0	14101	4.15	5
0	14102	4.15	8
0	14103	4.15	5
0	14104	4.15	3
0	14105	4.15	5
0	14106	4.15	3
0	14107	4.15	1
0	14108	4.15	1
0	14197	4.2	3
0	14198	4.2	5
0	14199	4.2	3
0	14200	4.2	5
0	14201	4.2	8
0	14202	4.2	5
0	14203	4.2	3
0	14204	4.2	5
0	14205	4.2	3
0	14206	4.2	1
0	14207	4.2	1
0	14211	4.2	3
0	14212	4.2	5
0	14213	4.2	3
0	14214	4.2	5
0	14215	4.2	8
0	14216	4.2	5
0	14217	4.2	3
0	14218	4.2	5
0	14219	4.2	3
0	14220	4.2	1
0	14221	4.2	1
0	14332	4.25	3
0	14333	4.25	5
0	14334	4.25	3
0	14335	4.25	5
0	14336	4.25	8
0	14337	4.25	5
0	14338	4.25	3
0	14339	4.25	5
0	14340	4.25	3
0	14341	4.25	1
0	14342	4.25	1
0	14431	4.3	3
0	14432	4.3	5
0	14433	4.3	3
0	14434	4.3	5
0	14435	4.3	8
0	14436	4.3	5
0	14437	4.3	3
0	14438	4.3	5
0	14439	4.3	3
0	14440	4.3	1
0	14441	4.3	1
0	14445	4.3	3
0	14446	4.3	5
0	14447	4.3	3
0	14448	4.3	5
0	14449	4.3	8
0	14450	4.3	5
0	14451	4.3	3
0	14452	4.3	5
0	14453	4.3	3
0	14454	4.3	1
0	14455	4.3	1
0	14566	4.35	3
0	14567	4.35	5
0	14568	4.35	3
0	14569	4.35	5
0	14570	4.35	8
0	14571	4.35	5
0	14572	4.35	3
0	14573	4.35	5
0	14574	4.35	3
0	14575	4.35	1
0	14576	4.35	1
0	14762	4.4	3
0	14763	4.4	5
0	14764	4.4	3
0	14765	4.4	5
0	14766	4.4	8
0	14767	4.4	5
0	14768	4.4	3
0	14769	4.4	5
0	14770	4.4	3
0	14771	4.4	1
0	14772	4.4	1
0	14776	4.4	3
0	14777	4.4	5
0	14778	4.4	3
0	14779	4.4	5
0	14780	4.4	8
0	14781	4.4	5
0	14782	4.4	3
0	14783	4.4	5
0	14784	4.4	3
0	14785	4.4	1
0	14786	4.4	1
0	15205	4.45	3
0	15206	4.45	5
0	15207	4.45	3
0	15208	4.45	5
0	15209	4.45	8
0	15210	4.45	5
0	15211	4.45	3
0	15212	4.45	5
0	15213	4.45	3
0	15214	4.45	1
0	15215	4.45	1
0	15368	4.5	3
0	15369	4.5	5
0	15370	4.5	3
0	15371	4.5	5
0	15372	4.5	8
0	15373	4.5	5
0	15374	4.5	3
0	15375	4.5	5
0	15376	4.5	3
0	15377	4.5	1
0	15378	4.5	1
0	15382	4.5	3
0	15383	4.5	5
0	15384	4.5	3
0	15385	4.5	5
0	15386	4.5	8
0	15387	4.5	5
0	15388	4.5	3
0	15389	4.5	5
0	15390	4.5	3
0	15391	4.5	1
0	15392	4.5	1
0	15565	4.55	3
0	15566	4.55	5
0	15567	4.55	3
0	15568	4.55	5
0	15569	4.55	8
0	15570	4.55	5
0	15571	4.55	3
0	15572	4.55	5
0	15573	4.55	3
0	15574	4.55	1
0	15575	4.55	1
0	15756	4.6	3
0	15757	4.6	5
0	15758	4.6	3
0	15759	4.6	5
0	15760	4.6	8
0	15761	4.6	5
0	15762	4.6	3
0	15763	4.6	5
0	15764	4.6	3
0	15765	4.6	1
0	15766	4.6	1
0	15770	4.6	3
0	15771	4.6	5
0	15772	4.6	3
0	15773	4.6	5
0	15774	4.6	8
0	15775	4.6	5
0	15776	4.6	3
0	15777	4.6	5
0	15778	4.6	3
0	15779	4.6	1
0	15780	4.6	1
0	15914	4.65	3
0	15915	4.65	5
0	15916	4.65	3
0	15917	4.65	5
0	15918	4.65	8
0	15919	4.65	5
0	15920	4.65	3
0	15921	4.65	5
0	15922	4.65	3
0	15923	4.65	1
0	15924	4.65	1
0	16036	4.7	3
0	16037	4.7	5
0	16038	4.7	3
0	16039	4.7	5
0	16040	4.7	8
0	16041	4.7	5
0	16042	4.7	3
0	16043	4.7	5
0	16044	4.7	3
0	16045	4.7	1
0	16046	4.7	1
0	16050	4.7	3
0	16051	4.7	5
0	16052	4.7	3
0	16053	4.7	5
0	16054	4.7	8
0	16055	4.7	5
0	16056	4.7	3
0	16057	4.7	5
0	16058	4.7	3
0	16059	4.7	1
0	16060	4.7	1
0	16171	4.75	3
0	16172	4.75	5
0	16173	4.75	3
0	16174	4.75	5
0	16175	4.75	8
0	16176	4.75	5
0	16177	4.75	3
0	16178	4.75	5
0	16179	4.75	3
0	16180	4.75	1
0	16181	4.75	1
0	16270	4.8	3
0	16271	4.8	5
0	16272	4.8	3
0	16273	4.8	5
0	16274	4.8	8
0	16275	4.8	5
0	16276	4.8	3
0	16277	4.8	5
0	16278	4.8	3
0	16279	4.8	1
0	16280	4.8	1
0	16284	4.8	3
0	16285	4.8	5
0	16286	4.8	3
0	16287	4.8	5
0	16288	4.8	8
0	16289	4.8	5
0	16290	4.8	3
0	16291	4.8	5
0	16292	4.8	3
0	16293	4.8	1
0	16294	4.8	1
0	16405	4.85	3
0	16406	4.85	5
0	16407	4.85	3
0	16408	4.85	5
0	16409	4.85	8
0	16410	4.85	5
0	16411	4.85	3
0	16412	4.85	5
0	16413	4.85	3
0	16414	4.85	1
0	16415	4.85	1
0	16527	4.9	3
0	16528	4.9	5
0	16529	4.9	3
0	16530	4.9	5
0	16531	4.9	8
0	16532	4.9	5
0	16533	4.9	3
0	16534	4.9	5
0	16535	4.9	3
0	16536	4.9	1
0	16537	4.9	1
0	16541	4.9	3
0	16542	4.9	5
0	16543	4.9	3
0	16544	4.9	5
0	16545	4.9	8
0	16546	4.9	5
0	16547	4.9	3
0	16548	4.9	5
0	16549	4.9	3
0	16550	4.9	1
0	16551	4.9	1
0	16736	4.95	3
0	16737	4.95	5
0	16738	4.95	3
0	16739	4.95	5
0	16740	4.95	8
0	16741	4.95	5
0	16742	4.95	3
0	16743	4.95	5
0	16744	4.95	3
0	16745	4.95	1
0	16746	4.95	1
0	17150	5	3
0	17151	5	5
0	17152	5	3
0	17153	5	5
0	17154	5	8
0	17155	5	5
0	17156	5	3
0	17157	5	5
0	17158	5	3
0	17159	5	1
0	17160	5	1
0	17164	5	3
0	17165	5	5
0	17166	5	3
0	17167	5	5
0	17168	5	8
0	17169	5	5
0	17170	5	3
0	17171	5	5
0	17172	5	3
0	17173	5	1
0	17174	5	1
0	17342	5.05	3
0	17343	5.05	5
0	17344	5.05	3
0	17345	5.05	5
0	17346	5.05	8
0	17347	5.05	5
0	17348	5.05	3
0	17349	5.05	5
0	17350	5.05	3
0	17351	5.05	1
0	17352	5.05	1
0	17542	5.1	3
0	17543	5.1	5
0	17544	5.1	3
0	17545	5.1	5
0	17546	5.1	8
0	17547	5.1	5
0	17548	5.1	3
0	17549	5.1	5
0	17550	5.1	3
0	17551	5.1	1
0	17552	5.1	1
0	17556	5.1	3
0	17557	5.1	5
0	17558	5.1	3
0	17559	5.1	5
0	17560	5.1	8
0	17561	5.1	5
0	17562	5.1	3
0	17563	5.1	5
0	17564	5.1	3
0	17565	5.1	1
0	17566	5.1	1
0	17807	5.15	3
0	17808	5.15	5
0	17809	5.15	3
0	17810	5.15	5
0	17811	5.15	8
0	17812	5.15	5
0	17813	5.15	3
0	17814	5.15	5
0	17815	5.15	3
0	17816	5.15	1
0	17817	5.15	1
0	17959	5.2	3
0	17960	5.2	5
0	17961	5.2	3
0	17962	5.2	5
0	17963	5.2	8
0	17964	5.2	5
0	17965	5.2	3
0	17966	5.2	5
0	17967	5.2	3
0	17968	5.2	1
0	17969	5.2	1
0	17973	5.2	3
0	17974	5.2	5
0	17975	5.2	3
0	17976	5.2	5
0	17977	5.2	8
0	17978	5.2	5
0	17979	5.2	3
0	17980	5.2	5
0	17981	5.2	3
0	17982	5.2	1
0	17983	5.2	1
0	18117	5.25	3
0	18118	5.25	5
0	18119	5.25	3
0	18120	5.25	5
0	18121	5.25	8
0	18122	5.25	5
0	18123	5.25	3
0	18124	5.25	5
0	18125	5.25	3
0	18126	5.25	1
0	18127	5.25	1
0	18216	5.3	3
0	18217	5.3	5
0	18218	5.3	3
0	18219	5.3	5
0	18220	5.3	8
0	18221	5.3	5
0	18222	5.3	3
0	18223	5.3	5
0	18224	5.3	3
0	18225	5.3	1
0	18226	5.3	1
0	18230	5.3	3
0	18231	5.3	5
0	18232	5.3	3
0	18233	5.3	5
0	18234	5.3	8
0	18235	5.3	5
0	18236	5.3	3
0	18237	5.3	5
0	18238	5.3	3
0	18239	5.3	1
0	18240	5.3	1
0	18351	5.35	3
0	18352	5.35	5
0	18353	5.35	3
0	18354	5.35	5
0	18355	5.35	8
0	18356	5.35	5
0	18357	5.35	3
0	18358	5.35	5
0	18359	5.35	3
0	18360	5.35	1
0	18361	5.35	1
0	18450	5.4	3
0	18451	5.4	5
0	18452	5.4	3
0	18453	5.4	5
0	18454	5.4	8
0	18455	5.4	5
0	18456	5.4	3
0	18457	5.4	5
0	18458	5.4	3
0	18459	5.4	1
0	18460	5.4	1
0	18464	5.4	3
0	18465	5.4	5
0	18466	5.4	3
0	18467	5.4	5
0	18468	5.4	8
0	18469	5.4	5
0	18470	5.4	3
0	18471	5.4	5
0	18472	5.4	3
0	18473	5.4	1
0	18474	5.4	1
0	18590	5.45	3
0	18591	5.45	5
0	18592	5.45	3
0	18593	5.45	5
0	18594	5.45	8
0	18595	5.45	5
0	18596	5.45	3
0	18597	5.45	5
0	18598	5.45	3
0	18599	5.45	1
0	18600	5.45	1
0	18751	5.5	3
0	18752	5.5	5
0	18753	5.5	3
0	18754	5.5	5
0	18755	5.5	8
0	18756	5.5	5
0	18757	5.5	3
0	18758	5.5	5
0	18759	5.5	3
0	18760	5.5	1
0	18761	5.5	1
0	18765	5.5	3
0	18766	5.5	5
0	18767	5.5	3
0	18768	5.5	5
0	18769	5.5	8
0	18770	5.5	5
0	18771	5.5	3
0	18772	5.5	5
0	18773	5.5	3
0	18774	5.5	1
0	18775	5.5	1
0	19268	5.55	3
0	19269	5.55	5
0	19270	5.55	3
0	19271	5.55	5
0	19272	5.55	8
0	19273	5.55	5
0	19274	5.55	3
0	19275	5.55	5
0	19276	5.55	3
0	19277	5.55	1
0	19278	5.55	1
0	19622	5.6	3
0	19623	5.6	5
0	19624	5.6	3
0	19625	5.6	5
0	19626	5.6	8
0	19627	5.6	5
0	19628	5.6	3
0	19629	5.6	5
0	19630	5.6	3
0	19631	5.6	1
0	19632	5.6	1
0	19636	5.6	3
0	19637	5.6	5
0	19638	5.6	3
0	19639	5.6	5
0	19640	5.6	8
0	19641	5.6	5
0	19642	5.6	3
0	19643	5.6	5
0	19644	5.6	3
0	19645	5.6	1
0	19646	5.6	1
0	20133	5.65	3
0	20134	5.65	5
0	20135	5.65	3
0	20136	5.65	5
0	20137	5.65	8
0	20138	5.65	5
0	20139	5.65	3
0	20140	5.65	5
0	20141	5.65	3
0	20142	5.65	1
0	20143	5.65	1
0	20449	5.7	3
0	20450	5.7	5
0	20451	5.7	3
0	20452	5.7	5
0	20453	5.7	8
0	20454	5.7	5
0	20455	5.7	3
0	20456	5.7	5
0	20457	5.7	3
0	20458	5.7	1
0	20459	5.7	1
0	20463	5.7	3
0	20464	5.7	5
0	20465	5.7	3
0	20466	5.7	5
0	20467	5.7	8
0	20468	5.7	5
0	20469	5.7	3
0	20470	5.7	5
0	20471	5.7	3
0	20472	5.7	1
0	20473	5.7	1
0	20653	5.75	3
0	20654	5.75	5
0	20655	5.75	3
0	20656	5.75	5
0	20657	5.75	8
0	20658	5.75	5
0	20659	5.75	3
0	20660	5.75	5
0	20661	5.75	3
0	20662	5.75	1
0	20663	5.75	1
0	20821	5.8	3
0	20822	5.8	5
0	20823	5.8	3
0	20824	5.8	5
0	20825	5.8	8
0	20826	5.8	5
0	20827	5.8	3
0	20828	5.8	5
0	20829	5.8	3
0	20830	5.8	1
0	20831	5.8	1
0	20835	5.8	3
0	20836	5.8	5
0	20837	5.8	3
0	20838	5.8	5
0	20839	5.8	8
0	20840	5.8	5
0	20841	5.8	3
0	20842	5.8	5
0	20843	5.8	3
0	20844	5.8	1
0	20845	5.8	1
0	20956	5.85	3
0	20957	5.85	5
0	20958	5.85	3
0	20959	5.85	5
0	20960	5.85	8
0	20961	5.85	5
0	20962	5.85	3
0	20963	5.85	5
0	20964	5.85	3
0	20965	5.85	1
0	20966	5.85	1
0	21055	5.9	3
0	21056	5.9	5
0	21057	5.9	3
0	21058	5.9	5
0	21059	5.9	8
0	21060	5.9	5
0	21061	5.9	3
0	21062	5.9	5
0	21063	5.9	3
0	21064	5.9	1
0	21065	5.9	1
0	21069	5.9	3
0	21070	5.9	5
0	21071	5.9	3
0	21072	5.9	5
0	21073	5.9	8
0	21074	5.9	5
0	21075	5.9	3
0	21076	5.9	5
0	21077	5.9	3
0	21078	5.9	1
0	21079	5.9	1
0	21190	5.95	3
0	21191	5.95	5
0	21192	5.95	3
0	21193	5.95	5
0	21194	5.95	8
0	21195	5.95	5
0	21196	5.95	3
0	21197	5.95	5
0	21198	5.95	3
0	21199	5.95	1
0	21200	5.95	1
0	21323	6	3
0	21324	6	5
0	21325	6	3
0	21326	6	5
0	21327	6	8
0	21328	6	5
0	21329	6	3
0	21330	6	5
0	21331	6	3
0	21332	6	1
0	21333	6	1
0	21337	6	3
0	21338	6	5
0	21339	6	3
0	21340	6	5
0	21341	6	8
0	21342	6	5
0	21343	6	3
0	21344	6	5
0	21345	6	3
0	21346	6	1
0	21347	6	1
0	21498	6.05	3
0	21499	6.05	5
0	21500	6.05	3
0	21501	6.05	5
0	21502	6.05	8
0	21503	6.05	5
0	21504	6.05	3
0	21505	6.05	5
0	21506	6.05	3
0	21507	6.05	1
0	21508	6.05	1
0	21941	6.1	3
0	21942	6.1	5
0	21943	6.1	3
0	21944	6.1	5
0	21945	6.1	8
0	21946	6.1	5
0	21947	6.1	3
0	21948	6.1	5
0	21949	6.1	3
0	21950	6.1	1
0	21951	6.1	1
0	21955	6.1	3
0	21956	6.1	5
0	21957	6.1	3
0	21958	6.1	5
0	21959	6.1	8
0	21960	6.1	5
0	21961	6.1	3
0	21962	6.1	5
0	21963	6.1	3
0	21964	6.1	1
0	21965	6.1	1
0	22255	6.15	3
0	22256	6.15	5
0	22257	6.15	3
0	22258	6.15	5
0	22259	6.15	8
0	22260	6.15	5
0	22261	6.15	3
0	22262	6.15	5
0	22263	6.15	3
0	22264	6.15	1
0	22265	6.15	1
0	22605	6.2	3
0	22606	6.2	5
0	22607	6.2	3
0	22608	6.2	5
0	22609	6.2	8
0	22610	6.2	5
0	22611	6.2	3
0	22612	6.2	5
0	22613	6.2	3
0	22614	6.2	1
0	22615	6.2	1
0	22619	6.2	3
0	22620	6.2	5
0	22621	6.2	3
0	22622	6.2	5
0	22623	6.2	8
0	22624	6.2	5
0	22625	6.2	3
0	22626	6.2	5
0	22627	6.2	3
0	22628	6.2	1
0	22629	6.2	1
0	22899	6.25	3
0	22900	6.25	5
0	22901	6.25	3
0	22902	6.25	5
0	22903	6.25	8
0	22904	6.25	5
0	22905	6.25	3
0	22906	6.25	5
0	22907	6.25	3
0	22908	6.25	1
0	22909	6.25	1
0	23003	6.3	3
0	23004	6.3	5
0	23005	6.3	3
0	23006	6.3	5
0	23007	6.3	8
0	23008	6.3	5
0	23009	6.3	3
0	23010	6.3	5
0	23011	6.3	3
0	23012	6.3	1
0	23013	6.3	1
0	23017	6.3	3
0	23018	6.3	5
0	23019	6.3	3
0	23020	6.3	5
0	23021	6.3	8
0	23022	6.3	5
0	23023	6.3	3
0	23024	6.3	5
0	23025	6.3	3
0	23026	6.3	1
0	23027	6.3	1
0	23207	6.35	3
0	23208	6.35	5
0	23209	6.35	3
0	23210	6.35	5
0	23211	6.35	8
0	23212	6.35	5
0	23213	6.35	3
0	23214	6.35	5
0	23215	6.35	3
0	23216	6.35	1
0	23217	6.35	1
0	23306	6.4	3
0	23307	6.4	5
0	23308	6.4	3
0	23309	6.4	5
0	23310	6.4	8
0	23311	6.4	5
0	23312	6.4	3
0	23313	6.4	5
0	23314	6.4	3
0	23315	6.4	1
0	23316	6.4	1
0	23320	6.4	3
0	23321	6.4	5
0	23322	6.4	3
0	23323	6.4	5
0	23324	6.4	8
0	23325	6.4	5
0	23326	6.4	3
0	23327	6.4	5
0	23328	6.4	3
0	23329	6.4	1
0	23330	6.4	1
0	23441	6.45	3
0	23442	6.45	5
0	23443	6.45	3
0	23444	6.45	5
0	23445	6.45	8
0	23446	6.45	5
0	23447	6.45	3
0	23448	6.45	5
0	23449	6.45	3
0	23450	6.45	1
0	23451	6.45	1
0	23551	6.5	3
0	23552	6.5	5
0	23553	6.5	3
0	23554	6.5	5
0	23555	6.5	8
0	23556	6.5	5
0	23557	6.5	3
0	23558	6.5	5
0	23559	6.5	3
0	23560	6.5	1
0	23561	6.5	1
0	23565	6.5	3
0	23566	6.5	5
0	23567	6.5	3
0	23568	6.5	5
0	23569	6.5	8
0	23570	6.5	5
0	23571	6.5	3
0	23572	6.5	5
0	23573	6.5	3
0	23574	6.5	1
0	23575	6.5	1
0	23714	6.55	3
0	23715	6.55	5
0	23716	6.55	3
0	23717	6.55	5
0	23718	6.55	8
0	23719	6.55	5
0	23720	6.55	3
0	23721	6.55	5
0	23722	6.55	3
0	23723	6.55	1
0	23724	6.55	1
0	23905	6.6	3
0	23906	6.6	5
0	23907	6.6	3
0	23908	6.6	5
0	23909	6.6	8
0	23910	6.6	5
0	23911	6.6	3
0	23912	6.6	5
0	23913	6.6	3
0	23914	6.6	1
0	23915	6.6	1
0	23919	6.6	3
0	23920	6.6	5
0	23921	6.6	3
0	23922	6.6	5
0	23923	6.6	8
0	23924	6.6	5
0	23925	6.6	3
0	23926	6.6	5
0	23927	6.6	3
0	23928	6.6	1
0	23929	6.6	1
0	24369	6.65	3
0	24370	6.65	5
0	24371	6.65	3
0	24372	6.65	5
0	24373	6.65	8
0	24374	6.65	5
0	24375	6.65	3
0	24376	6.65	5
0	24377	6.65	3
0	24378	6.65	1
0	24379	6.65	1
0	24660	6.7	3
0	24661	6.7	5
0	24662	6.7	3
0	24663	6.7	5
0	24664	6.7	8
0	24665	6.7	5
0	24666	6.7	3
0	24667	6.7	5
0	24668	6.7	3
0	24669	6.7	1
0	24670	6.7	1
0	24674	6.7	3
0	24675	6.7	5
0	24676	6.7	3
0	24677	6.7	5
0	24678	6.7	8
0	24679	6.7	5
0	24680	6.7	3
0	24681	6.7	5
0	24682	6.7	3
0	24683	6.7	1
0	24684	6.7	1
0	24953	6.75	3
0	24954	6.75	5
0	24955	6.75	3
0	24956	6.75	5
0	24957	6.75	8
0	24958	6.75	5
0	24959	6.75	3
0	24960	6.75	5
0	24961	6.75	3
0	24962	6.75	1
0	24963	6.75	1
0	25168	6.8	3
0	25169	6.8	5
0	25170	6.8	3
0	25171	6.8	5
0	25172	6.8	8
0	25173	6.8	5
0	25174	6.8	3
0	25175	6.8	5
0	25176	6.8	3
0	25177	6.8	1
0	25178	6.8	1
0	25182	6.8	3
0	25183	6.8	5
0	25184	6.8	3
0	25185	6.8	5
0	25186	6.8	8
0	25187	6.8	5
0	25188	6.8	3
0	25189	6.8	5
0	25190	6.8	3
0	25191	6.8	1
0	25192	6.8	1
0	25308	6.85	3
0	25309	6.85	5
0	25310	6.85	3
0	25311	6.85	5
0	25312	6.85	8
0	25313	6.85	5
0	25314	6.85	3
0	25315	6.85	5
0	25316	6.85	3
0	25317	6.85	1
0	25318	6.85	1
0	25476	6.9	3
0	25477	6.9	5
0	25478	6.9	3
0	25479	6.9	5
0	25480	6.9	8
0	25481	6.9	5
0	25482	6.9	3
0	25483	6.9	5
0	25484	6.9	3
0	25485	6.9	1
0	25486	6.9	1
0	25490	6.9	3
0	25491	6.9	5
0	25492	6.9	3
0	25493	6.9	5
0	25494	6.9	8
0	25495	6.9	5
0	25496	6.9	3
0	25497	6.9	5
0	25498	6.9	3
0	25499	6.9	1
0	25500	6.9	1
0	25611	6.95	3
0	25612	6.95	5
0	25613	6.95	3
0	25614	6.95	5
0	25615	6.95	8
0	25616	6.95	5
0	25617	6.95	3
0	25618	6.95	5
0	25619	6.95	3
0	25620	6.95	1
0	25621	6.95	1
0	25721	7	3
0	25722	7	5
0	25723	7	3
0	25724	7	5
0	25725	7	8
0	25726	7	5
0	25727	7	3
0	25728	7	5
0	25729	7	3
0	25730	7	1
0	25731	7	1
0	25735	7	3
0	25736	7	5
0	25737	7	3
0	25738	7	5
0	25739	7	8
0	25740	7	5
0	25741	7	3
0	25742	7	5
0	25743	7	3
0	25744	7	1
0	25745	7	1
0	25856	7.05	3
0	25857	7.05	5
0	25858	7.05	3
0	25859	7.05	5
0	25860	7.05	8
0	25861	7.05	5
0	25862	7.05	3
0	25863	7.05	5
0	25864	7.05	3
0	25865	7.05	1
0	25866	7.05	1
0	26006	7.1	3
0	26007	7.1	5
0	26008	7.1	3
0	26009	7.1	5
0	26010	7.1	8
0	26011	7.1	5
0	26012	7.1	3
0	26013	7.1	5
0	26014	7.1	3
0	26015	7.1	1
0	26016	7.1	1
0	26020	7.1	3
0	26021	7.1	5
0	26022	7.1	3
0	26023	7.1	5
0	26024	7.1	8
0	26025	7.1	5
0	26026	7.1	3
0	26027	7.1	5
0	26028	7.1	3
0	26029	7.1	1
0	26030	7.1	1
0	26210	7.15	3
0	26211	7.15	5
0	26212	7.15	3
0	26213	7.15	5
0	26214	7.15	8
0	26215	7.15	5
0	26216	7.15	3
0	26217	7.15	5
0	26218	7.15	3
0	26219	7.15	1
0	26220	7.15	1
0	26579	7.2	3
0	26580	7.2	5
0	26581	7.2	3
0	26582	7.2	5
0	26583	7.2	8
0	26584	7.2	5
0	26585	7.2	3
0	26586	7.2	5
0	26587	7.2	3
0	26588	7.2	1
0	26589	7.2	1
0	26593	7.2	3
0	26594	7.2	5
0	26595	7.2	3
0	26596	7.2	5
0	26597	7.2	8
0	26598	7.2	5
0	26599	7.2	3
0	26600	7.2	5
0	26601	7.2	3
0	26602	7.2	1
0	26603	7.2	1
0	26893	7.25	3
0	26894	7.25	5
0	26895	7.25	3
0	26896	7.25	5
0	26897	7.25	8
0	26898	7.25	5
0	26899	7.25	3
0	26900	7.25	5
0	26901	7.25	3
0	26902	7.25	1
0	26903	7.25	1
0	27221	7.3	3
0	27222	7.3	5
0	27223	7.3	3
0	27224	7.3	5
0	27225	7.3	8
0	27226	7.3	5
0	27227	7.3	3
0	27228	7.3	5
0	27229	7.3	3
0	27230	7.3	1
0	27231	7.3	1
0	27235	7.3	3
0	27236	7.3	5
0	27237	7.3	3
0	27238	7.3	5
0	27239	7.3	8
0	27240	7.3	5
0	27241	7.3	3
0	27242	7.3	5
0	27243	7.3	3
0	27244	7.3	1
0	27245	7.3	1
0	27541	7.35	3
0	27542	7.35	5
0	27543	7.35	3
0	27544	7.35	5
0	27545	7.35	8
0	27546	7.35	5
0	27547	7.35	3
0	27548	7.35	5
0	27549	7.35	3
0	27550	7.35	1
0	27551	7.35	1
0	27777	7.4	3
0	27778	7.4	5
0	27779	7.4	3
0	27780	7.4	5
0	27781	7.4	8
0	27782	7.4	5
0	27783	7.4	3
0	27784	7.4	5
0	27785	7.4	3
0	27786	7.4	1
0	27787	7.4	1
0	27791	7.4	3
0	27792	7.4	5
0	27793	7.4	3
0	27794	7.4	5
0	27795	7.4	8
0	27796	7.4	5
0	27797	7.4	3
0	27798	7.4	5
0	27799	7.4	3
0	27800	7.4	1
0	27801	7.4	1
0	27993	7.45	3
0	27994	7.45	5
0	27995	7.45	3
0	27996	7.45	5
0	27997	7.45	8
0	27998	7.45	5
0	27999	7.45	3
0	28000	7.45	5
0	28001	7.45	3
0	28002	7.45	1
0	28003	7.45	1
0	28092	7.5	3
0	28093	7.5	5
0	28094	7.5	3
0	28095	7.5	5
0	28096	7.5	8
0	28097	7.5	5
0	28098	7.5	3
0	28099	7.5	5
0	28100	7.5	3
0	28101	7.5	1
0	28102	7.5	1
0	28106	7.5	3
0	28107	7.5	5
0	28108	7.5	3
0	28109	7.5	5
0	28110	7.5	8
0	28111	7.5	5
0	28112	7.5	3
0	28113	7.5	5
0	28114	7.5	3
0	28115	7.5	1
0	28116	7.5	1
0	28227	7.55	3
0	28228	7.55	5
0	28229	7.55	3
0	28230	7.55	5
0	28231	7.55	8
0	28232	7.55	5
0	28233	7.55	3
0	28234	7.55	5
0	28235	7.55	3
0	28236	7.55	1
0	28237	7.55	1
0	28326	7.6	3
0	28327	7.6	5
0	28328	7.6	3
0	28329	7.6	5
0	28330	7.6	8
0	28331	7.6	5
0	28332	7.6	3
0	28333	7.6	5
0	28334	7.6	3
0	28335	7.6	1
0	28336	7.6	1
0	28340	7.6	3
0	28341	7.6	5
0	28342	7.6	3
0	28343	7.6	5
0	28344	7.6	8
0	28345	7.6	5
0	28346	7.6	3
0	28347	7.6	5
0	28348	7.6	3
0	28349	7.6	1
0	28350	7.6	1
0	28507	7.65	3
0	28508	7.65	5
0	28509	7.65	3
0	28510	7.65	5
0	28511	7.65	8
0	28512	7.65	5
0	28513	7.65	3
0	28514	7.65	5
0	28515	7.65	3
0	28516	7.65	1
0	28517	7.65	1
0	28611	7.7	3
0	28612	7.7	5
0	28613	7.7	3
0	28614	7.7	5
0	28615	7.7	8
0	28616	7.7	5
0	28617	7.7	3
0	28618	7.7	5
0	28619	7.7	3
0	28620	7.7	1
0	28621	7.7	1
0	28625	7.7	3
0	28626	7.7	5
0	28627	7.7	3
0	28628	7.7	5
0	28629	7.7	8
0	28630	7.7	5
0	28631	7.7	3
0	28632	7.7	5
0	28633	7.7	3
0	28634	7.7	1
0	28635	7.7	1
0	28994	7.75	3
0	28995	7.75	5
0	28996	7.75	3
0	28997	7.75	5
0	28998	7.75	8
0	28999	7.75	5
0	29000	7.75	3
0	29001	7.75	5
0	29002	7.75	3
0	29003	7.75	1
0	29004	7.75	1
0	29194	7.8	3
0	29195	7.8	5
0	29196	7.8	3
0	29197	7.8	5
0	29198	7.8	8
0	29199	7.8	5
0	29200	7.8	3
0	29201	7.8	5
0	29202	7.8	3
0	29203	7.8	1
0	29204	7.8	1
0	29208	7.8	3
0	29209	7.8	5
0	29210	7.8	3
0	29211	7.8	5
0	29212	7.8	8
0	29213	7.8	5
0	29214	7.8	3
0	29215	7.8	5
0	29216	7.8	3
0	29217	7.8	1
0	29218	7.8	1
0	29375	7.85	3
0	29376	7.85	5
0	29377	7.85	3
0	29378	7.85	5
0	29379	7.85	8
0	29380	7.85	5
0	29381	7.85	3
0	29382	7.85	5
0	29383	7.85	3
0	29384	7.85	1
0	29385	7.85	1
0	29644	7.9	3
0	29645	7.9	5
0	29646	7.9	3
0	29647	7.9	5
0	29648	7.9	8
0	29649	7.9	5
0	29650	7.9	3
0	29651	7.9	5
0	29652	7.9	3
0	29653	7.9	1
0	29654	7.9	1
0	29658	7.9	3
0	29659	7.9	5
0	29660	7.9	3
0	29661	7.9	5
0	29662	7.9	8
0	29663	7.9	5
0	29664	7.9	3
0	29665	7.9	5
0	29666	7.9	3
0	29667	7.9	1
0	29668	7.9	1
0	29787	7.95	3
0	29788	7.95	5
0	29789	7.95	3
0	29790	7.95	5
0	29791	7.95	8
0	29792	7.95	5
0	29793	7.95	3
0	29794	7.95	5
0	29795	7.95	3
0	29796	7.95	1
0	29797	7.95	1
0	29955	8	3
0	29956	8	5
0	29957	8	3
0	29958	8	5
0	29959	8	8
0	29960	8	5
0	29961	8	3
0	29962	8	5
0	29963	8	3
0	29964	8	1
0	29965	8	1
0	29969	8	3
0	29970	8	5
0	29971	8	3
0	29972	8	5
0	29973	8	8
0	29974	8	5
0	29975	8	3
0	29976	8	5
0	29977	8	3
0	29978	8	1
0	29979	8	1
0	30090	8.05	3
0	30091	8.05	5
0	30092	8.05	3
0	30093	8.05	5
0	30094	8.05	8
0	30095	8.05	5
0	30096	8.05	3
0	30097	8.05	5
0	30098	8.05	3
0	30099	8.05	1
0	30100	8.05	1
0	30200	8.1	3
0	30201	8.1	5
0	30202	8.1	3
0	30203	8.1	5
0	30204	8.1	8
0	30205	8.1	5
0	30206	8.1	3
0	30207	8.1	5
0	30208	8.1	3
0	30209	8.1	1
0	30210	8.1	1
0	30214	8.1	3
0	30215	8.1	5
0	30216	8.1	3
0	30217	8.1	5
0	30218	8.1	8
0	30219	8.1	5
0	30220	8.1	3
0	30221	8.1	5
0	30222	8.1	3
0	30223	8.1	1
0	30224	8.1	1
0	30348	8.15	3
0	30349	8.15	5
0	30350	8.15	3
0	30351	8.15	5
0	30352	8.15	8
0	30353	8.15	5
0	30354	8.15	3
0	30355	8.15	5
0	30356	8.15	3
0	30357	8.15	1
0	30358	8.15	1
0	30516	8.2	3
0	30517	8.2	5
0	30518	8.2	3
0	30519	8.2	5
0	30520	8.2	8
0	30521	8.2	5
0	30522	8.2	3
0	30523	8.2	5
0	30524	8.2	3
0	30525	8.2	1
0	30526	8.2	1
0	30530	8.2	3
0	30531	8.2	5
0	30532	8.2	3
0	30533	8.2	5
0	30534	8.2	8
0	30535	8.2	5
0	30536	8.2	3
0	30537	8.2	5
0	30538	8.2	3
0	30539	8.2	1
0	30540	8.2	1
0	30651	8.25	3
0	30652	8.25	5
0	30653	8.25	3
0	30654	8.25	5
0	30655	8.25	8
0	30656	8.25	5
0	30657	8.25	3
0	30658	8.25	5
0	30659	8.25	3
0	30660	8.25	1
0	30661	8.25	1
0	30996	8.3	3
0	30997	8.3	5
0	30998	8.3	3
0	30999	8.3	5
0	31000	8.3	8
0	31001	8.3	5
0	31002	8.3	3
0	31003	8.3	5
0	31004	8.3	3
0	31005	8.3	1
0	31006	8.3	1
0	31010	8.3	3
0	31011	8.3	5
0	31012	8.3	3
0	31013	8.3	5
0	31014	8.3	8
0	31015	8.3	5
0	31016	8.3	3
0	31017	8.3	5
0	31018	8.3	3
0	31019	8.3	1
0	31020	8.3	1
0	31299	8.35	3
0	31300	8.35	5
0	31301	8.35	3
0	31302	8.35	5
0	31303	8.35	8
0	31304	8.35	5
0	31305	8.35	3
0	31306	8.35	5
0	31307	8.35	3
0	31308	8.35	1
0	31309	8.35	1
0	31445	8.4	3
0	31446	8.4	5
0	31447	8.4	3
0	31448	8.4	5
0	31449	8.4	8
0	31450	8.4	5
0	31451	8.4	3
0	31452	8.4	5
0	31453	8.4	3
0	31454	8.4	1
0	31455	8.4	1
0	31459	8.4	3
0	31460	8.4	5
0	31461	8.4	3
0	31462	8.4	5
0	31463	8.4	8
0	31464	8.4	5
0	31465	8.4	3
0	31466	8.4	5
0	31467	8.4	3
0	31468	8.4	1
0	31469	8.4	1
0	31752	8.45	3
0	31753	8.45	5
0	31754	8.45	3
0	31755	8.45	5
0	31756	8.45	8
0	31757	8.45	5
0	31758	8.45	3
0	31759	8.45	5
0	31760	8.45	3
0	31761	8.45	1
0	31762	8.45	1
0	31918	8.5	3
0	31919	8.5	5
0	31920	8.5	3
0	31921	8.5	5
0	31922	8.5	8
0	31923	8.5	5
0	31924	8.5	3
0	31925	8.5	5
0	31926	8.5	3
0	31927	8.5	1
0	31928	8.5	1
0	31932	8.5	3
0	31933	8.5	5
0	31934	8.5	3
0	31935	8.5	5
0	31936	8.5	8
0	31937	8.5	5
0	31938	8.5	3
0	31939	8.5	5
0	31940	8.5	3
0	31941	8.5	1
0	31942	8.5	1
0	32143	8.55	3
0	32144	8.55	5
0	32145	8.55	3
0	32146	8.55	5
0	32147	8.55	8
0	32148	8.55	5
0	32149	8.55	3
0	32150	8.55	5
0	32151	8.55	3
0	32152	8.55	1
0	32153	8.55	1
0	32242	8.6	3
0	32243	8.6	5
0	32244	8.6	3
0	32245	8.6	5
0	32246	8.6	8
0	32247	8.6	5
0	32248	8.6	3
0	32249	8.6	5
0	32250	8.6	3
0	32251	8.6	1
0	32252	8.6	1
0	32256	8.6	3
0	32257	8.6	5
0	32258	8.6	3
0	32259	8.6	5
0	32260	8.6	8
0	32261	8.6	5
0	32262	8.6	3
0	32263	8.6	5
0	32264	8.6	3
0	32265	8.6	1
0	32266	8.6	1
0	32377	8.65	3
0	32378	8.65	5
0	32379	8.65	3
0	32380	8.65	5
0	32381	8.65	8
0	32382	8.65	5
0	32383	8.65	3
0	32384	8.65	5
0	32385	8.65	3
0	32386	8.65	1
0	32387	8.65	1
0	32504	8.7	3
0	32505	8.7	5
0	32506	8.7	3
0	32507	8.7	5
0	32508	8.7	8
0	32509	8.7	5
0	32510	8.7	3
0	32511	8.7	5
0	32512	8.7	3
0	32513	8.7	1
0	32514	8.7	1
0	32518	8.7	3
0	32519	8.7	5
0	32520	8.7	3
0	32521	8.7	5
0	32522	8.7	8
0	32523	8.7	5
0	32524	8.7	3
0	32525	8.7	5
0	32526	8.7	3
0	32527	8.7	1
0	32528	8.7	1
0	32708	8.75	3
0	32709	8.75	5
0	32710	8.75	3
0	32711	8.75	5
0	32712	8.75	8
0	32713	8.75	5
0	32714	8.75	3
0	32715	8.75	5
0	32716	8.75	3
0	32717	8.75	1
0	32718	8.75	1
0	32830	8.8	3
0	32831	8.8	5
0	32832	8.8	3
0	32833	8.8	5
0	32834	8.8	8
0	32835	8.8	5
0	32836	8.8	3
0	32837	8.8	5
0	32838	8.8	3
0	32839	8.8	1
0	32840	8.8	1
0	32844	8.8	3
0	32845	8.8	5
0	32846	8.8	3
0	32847	8.8	5
0	32848	8.8	8
0	32849	8.8	5
0	32850	8.8	3
0	32851	8.8	5
0	32852	8.8	3
0	32853	8.8	1
0	32854	8.8	1
0	33189	8.85	3
0	33190	8.85	5
0	33191	8.85	3
0	33192	8.85	5
0	33193	8.85	8
0	33194	8.85	5
0	33195	8.85	3
0	33196	8.85	5
0	33197	8.85	3
0	33198	8.85	1
0	33199	8.85	1
0	33442	8.9	3
0	33443	8.9	5
0	33444	8.9	3
0	33445	8.9	5
0	33446	8.9	8
0	33447	8.9	5
0	33448	8.9	3
0	33449	8.9	5
0	33450	8.9	3
0	33451	8.9	1
0	33452	8.9	1
0	33456	8.9	3
0	33457	8.9	5
0	33458	8.9	3
0	33459	8.9	5
0	33460	8.9	8
0	33461	8.9	5
0	33462	8.9	3
0	33463	8.9	5
0	33464	8.9	3
0	33465	8.9	1
0	33466	8.9	1
0	33640	8.95	3
0	33641	8.95	5
0	33642	8.95	3
0	33643	8.95	5
0	33644	8.95	8
0	33645	8.95	5
0	33646	8.95	3
0	33647	8.95	5
0	33648	8.95	3
0	33649	8.95	1
0	33650	8.95	1
0	33854	9	3
0	33855	9	5
0	33856	9	3
0	33857	9	5
0	33858	9	8
0	33859	9	5
0	33860	9	3
0	33861	9	5
0	33862	9	3
0	33863	9	1
0	33864	9	1
0	33868	9	3
0	33869	9	5
0	33870	9	3
0	33871	9	5
0	33872	9	8
0	33873	9	5
0	33874	9	3
0	33875	9	5
0	33876	9	3
0	33877	9	1
0	33878	9	1
0	34040	9.05	3
0	34041	9.05	5
0	34042	9.05	3
0	34043	9.05	5
0	34044	9.05	8
0	34045	9.05	5
0	34046	9.05	3
0	34047	9.05	5
0	34048	9.05	3
0	34049	9.05	1
0	34050	9.05	1
0	34219	9.1	3
0	34220	9.1	5
0	34221	9.1	3
0	34222	9.1	5
0	34223	9.1	8
0	34224	9.1	5
0	34225	9.1	3
0	34226	9.1	5
0	34227	9.1	3
0	34228	9.1	1
0	34229	9.1	1
0	34233	9.1	3
0	34234	9.1	5
0	34235	9.1	3
0	34236	9.1	5
0	34237	9.1	8
0	34238	9.1	5
0	34239	9.1	3
0	34240	9.1	5
0	34241	9.1	3
0	34242	9.1	1
0	34243	9.1	1
0	34367	9.15	3
0	34368	9.15	5
0	34369	9.15	3
0	34370	9.15	5
0	34371	9.15	8
0	34372	9.15	5
0	34373	9.15	3
0	34374	9.15	5
0	34375	9.15	3
0	34376	9.15	1
0	34377	9.15	1
0	34466	9.2	3
0	34467	9.2	5
0	34468	9.2	3
0	34469	9.2	5
0	34470	9.2	8
0	34471	9.2	5
0	34472	9.2	3
0	34473	9.2	5
0	34474	9.2	3
0	34475	9.2	1
0	34476	9.2	1
0	34480	9.2	3
0	34481	9.2	5
0	34482	9.2	3
0	34483	9.2	5
0	34484	9.2	8
0	34485	9.2	5
0	34486	9.2	3
0	34487	9.2	5
0	34488	9.2	3
0	34489	9.2	1
0	34490	9.2	1
0	34629	9.25	3
0	34630	9.25	5
0	34631	9.25	3
0	34632	9.25	5
0	34633	9.25	8
0	34634	9.25	5
0	34635	9.25	3
0	34636	9.25	5
0	34637	9.25	3
0	34638	9.25	1
0	34639	9.25	1
0	34779	9.3	3
0	34780	9.3	5
0	34781	9.3	3
0	34782	9.3	5
0	34783	9.3	8
0	34784	9.3	5
0	34785	9.3	3
0	34786	9.3	5
0	34787	9.3	3
0	34788	9.3	1
0	34789	9.3	1
0	34793	9.3	3
0	34794	9.3	5
0	34795	9.3	3
0	34796	9.3	5
0	34797	9.3	8
0	34798	9.3	5
0	34799	9.3	3
0	34800	9.3	5
0	34801	9.3	3
0	34802	9.3	1
0	34803	9.3	1
0	34937	9.35	3
0	34938	9.35	5
0	34939	9.35	3
0	34940	9.35	5
0	34941	9.35	8
0	34942	9.35	5
0	34943	9.35	3
0	34944	9.35	5
0	34945	9.35	3
0	34946	9.35	1
0	34947	9.35	1
0	35261	9.4	3
0	35262	9.4	5
0	35263	9.4	3
0	35264	9.4	5
0	35265	9.4	8
0	35266	9.4	5
0	35267	9.4	3
0	35268	9.4	5
0	35269	9.4	3
0	35270	9.4	1
0	35271	9.4	1
0	35275	9.4	3
0	35276	9.4	5
0	35277	9.4	3
0	35278	9.4	5
0	35279	9.4	8
0	35280	9.4	5
0	35281	9.4	3
0	35282	9.4	5
0	35283	9.4	3
0	35284	9.4	1
0	35285	9.4	1
0	35647	9.45	3
0	35648	9.45	5
0	35649	9.45	3
0	35650	9.45	5
0	35651	9.45	8
0	35652	9.45	5
0	35653	9.45	3
0	35654	9.45	5
0	35655	9.45	3
0	35656	9.45	1
0	35657	9.45	1
0	35893	9.5	3
0	35894	9.5	5
0	35895	9.5	3
0	35896	9.5	5
0	35897	9.5	8
0	35898	9.5	5
0	35899	9.5	3
0	35900	9.5	5
0	35901	9.5	3
0	35902	9.5	1
0	35903	9.5	1
0	35907	9.5	3
0	35908	9.5	5
0	35909	9.5	3
0	35910	9.5	5
0	35911	9.5	8
0	35912	9.5	5
0	35913	9.5	3
0	35914	9.5	5
0	35915	9.5	3
0	35916	9.5	1
0	35917	9.5	1
0	36137	9.55	3
0	36138	9.55	5
0	36139	9.55	3
0	36140	9.55	5
0	36141	9.55	8
0	36142	9.55	5
0	36143	9.55	3
0	36144	9.55	5
0	36145	9.55	3
0	36146	9.55	1
0	36147	9.55	1
0	36305	9.6	3
0	36306	9.6	5
0	36307	9.6	3
0	36308	9.6	5
0	36309	9.6	8
0	36310	9.6	5
0	36311	9.6	3
0	36312	9.6	5
0	36313	9.6	3
0	36314	9.6	1
0	36315	9.6	1
0	36319	9.6	3
0	36320	9.6	5
0	36321	9.6	3
0	36322	9.6	5
0	36323	9.6	8
0	36324	9.6	5
0	36325	9.6	3
0	36326	9.6	5
0	36327	9.6	3
0	36328	9.6	1
0	36329	9.6	1
0	36509	9.65	3
0	36510	9.65	5
0	36511	9.65	3
0	36512	9.65	5
0	36513	9.65	8
0	36514	9.65	5
0	36515	9.65	3
0	36516	9.65	5
0	36517	9.65	3
0	36518	9.65	1
0	36519	9.65	1
0	36608	9.7	3
0	36609	9.7	5
0	36610	9.7	3
0	36611	9.7	5
0	36612	9.7	8
0	36613	9.7	5
0	36614	9.7	3
0	36615	9.7	5
0	36616	9.7	3
0	36617	9.7	1
0	36618	9.7	1
0	36622	9.7	3
0	36623	9.7	5
0	36624	9.7	3
0	36625	9.7	5
0	36626	9.7	8
0	36627	9.7	5
0	36628	9.7	3
0	36629	9.7	5
0	36630	9.7	3
0	36631	9.7	1
0	36632	9.7	1
0	36766	9.75	3
0	36767	9.75	5
0	36768	9.75	3
0	36769	9.75	5
0	36770	9.75	8
0	36771	9.75	5
0	36772	9.75	3
0	36773	9.75	5
0	36774	9.75	3
0	36775	9.75	1
0	36776	9.75	1
0	36870	9.8	3
0	36871	9.8	5
0	36872	9.8	3
0	36873	9.8	5
0	36874	9.8	8
0	36875	9.8	5
0	36876	9.8	3
0	36877	9.8	5
0	36878	9.8	3
0	36879	9.8	1
0	36880	9.8	1
0	36884	9.8	3
0	36885	9.8	5
0	36886	9.8	3
0	36887	9.8	5
0	36888	9.8	8
0	36889	9.8	5
0	36890	9.8	3
0	36891	9.8	5
0	36892	9.8	3
0	36893	9.8	1
0	36894	9.8	1
0	37051	9.85	3
0	37052	9.85	5
0	37053	9.85	3
0	37054	9.85	5
0	37055	9.85	8
0	37056	9.85	5
0	37057	9.85	3
0	37058	9.85	5
0	37059	9.85	3
0	37060	9.85	1
0	37061	9.85	1
0	37190	9.9	3
0	37191	9.9	5
0	37192	9.9	3
0	37193	9.9	5
0	37194	9.9	8
0	37195	9.9	5
0	37196	9.9	3
0	37197	9.9	5
0	37198	9.9	3
0	37199	9.9	1
0	37200	9.9	1
0	37204	9.9	3
0	37205	9.9	5
0	37206	9.9	3
0	37207	9.9	5
0	37208	9.9	8
0	37209	9.9	5
0	37210	9.9	3
0	37211	9.9	5
0	37212	9.9	3
0	37213	9.9	1
0	37214	9.9	1
0	37493	9.95	3
0	37494	9.95	5
0	37495	9.95	3
0	37496	9.95	5
0	37497	9.95	8
0	37498	9.95	5
0	37499	9.95	3
0	37500	9.95	5
0	37501	9.95	3
0	37502	9.95	1
0	37503	9.95	1
0	37696	10	3
0	37697	10	5
0	37698	10	3
0	37699	10	5
0	37700	10	8
0	37701	10	5
0	37702	10	3
0	37703	10	5
0	37704	10	3
0	37705	10	1
0	37706	10	1
0	37710	10	3
0	37711	10	5
0	37712	10	3
0	37713	10	5
0	37714	10	8
0	37715	10	5
0	37716	10	3
0	37717	10	5
0	37718	10	3
0	37719	10	1
0	37720	10	1
0	37923	10.05	3
0	37924	10.05	5
0	37925	10.05	3
0	37926	10.05	5
0	37927	10.05	8
0	37928	10.05	5
0	37929	10.05	3
0	37930	10.05	5
0	37931	10.05	3
0	37932	10.05	1
0	37933	10.05	1
0	38147	10.1	3
0	38148	10.1	5
0	38149	10.1	3
0	38150	10.1	5
0	38151	10.1	8
0	38152	10.1	5
0	38153	10.1	3
0	38154	10.1	5
0	38155	10.1	3
0	38156	10.1	1
0	38157	10.1	1
0	38161	10.1	3
0	38162	10.1	5
0	38163	10.1	3
0	38164	10.1	5
0	38165	10.1	8
0	38166	10.1	5
0	38167	10.1	3
0	38168	10.1	5
0	38169	10.1	3
0	38170	10.1	1
0	38171	10.1	1
0	38364	10.15	3
0	38365	10.15	5
0	38366	10.15	3
0	38367	10.15	5
0	38368	10.15	8
0	38369	10.15	5
0	38370	10.15	3
0	38371	10.15	5
0	38372	10.15	3
0	38373	10.15	1
0	38374	10.15	1
0	38532	10.2	3
0	38533	10.2	5
0	38534	10.2	3
0	38535	10.2	5
0	38536	10.2	8
0	38537	10.2	5
0	38538	10.2	3
0	38539	10.2	5
0	38540	10.2	3
0	38541	10.2	1
0	38542	10.2	1
0	38546	10.2	3
0	38547	10.2	5
0	38548	10.2	3
0	38549	10.2	5
0	38550	10.2	8
0	38551	10.2	5
0	38552	10.2	3
0	38553	10.2	5
0	38554	10.2	3
0	38555	10.2	1
0	38556	10.2	1
0	38667	10.25	3
0	38668	10.25	5
0	38669	10.25	3
0	38670	10.25	5
0	38671	10.25	8
0	38672	10.25	5
0	38673	10.25	3
0	38674	10.25	5
0	38675	10.25	3
0	38676	10.25	1
0	38677	10.25	1
0	38771	10.3	3
0	38772	10.3	5
0	38773	10.3	3
0	38774	10.3	5
0	38775	10.3	8
0	38776	10.3	5
0	38777	10.3	3
0	38778	10.3	5
0	38779	10.3	3
0	38780	10.3	1
0	38781	10.3	1
0	38785	10.3	3
0	38786	10.3	5
0	38787	10.3	3
0	38788	10.3	5
0	38789	10.3	8
0	38790	10.3	5
0	38791	10.3	3
0	38792	10.3	5
0	38793	10.3	3
0	38794	10.3	1
0	38795	10.3	1
0	38906	10.35	3
0	38907	10.35	5
0	38908	10.35	3
0	38909	10.35	5
0	38910	10.35	8
0	38911	10.35	5
0	38912	10.35	3
0	38913	10.35	5
0	38914	10.35	3
0	38915	10.35	1
0	38916	10.35	1
0	39028	10.4	3
0	39029	10.4	5
0	39030	10.4	3
0	39031	10.4	5
0	39032	10.4	8
0	39033	10.4	5
0	39034	10.4	3
0	39035	10.4	5
0	39036	10.4	3
0	39037	10.4	1
0	39038	10.4	1
0	39042	10.4	3
0	39043	10.4	5
0	39044	10.4	3
0	39045	10.4	5
0	39046	10.4	8
0	39047	10.4	5
0	39048	10.4	3
0	39049	10.4	5
0	39050	10.4	3
0	39051	10.4	1
0	39052	10.4	1
0	39185	10.45	3
0	39186	10.45	5
0	39187	10.45	3
0	39188	10.45	5
0	39189	10.45	8
0	39190	10.45	5
0	39191	10.45	3
0	39192	10.45	5
0	39193	10.45	3
0	39194	10.45	1
0	39195	10.45	1
0	39473	10.5	3
0	39474	10.5	5
0	39475	10.5	3
0	39476	10.5	5
0	39477	10.5	8
0	39478	10.5	5
0	39479	10.5	3
0	39480	10.5	5
0	39481	10.5	3
0	39482	10.5	1
0	39483	10.5	1
0	39487	10.5	3
0	39488	10.5	5
0	39489	10.5	3
0	39490	10.5	5
0	39491	10.5	8
0	39492	10.5	5
0	39493	10.5	3
0	39494	10.5	5
0	39495	10.5	3
0	39496	10.5	1
0	39497	10.5	1
0	39682	10.55	3
0	39683	10.55	5
0	39684	10.55	3
0	39685	10.55	5
0	39686	10.55	8
0	39687	10.55	5
0	39688	10.55	3
0	39689	10.55	5
0	39690	10.55	3
0	39691	10.55	1
0	39692	10.55	1
0	39904	10.6	3
0	39905	10.6	5
0	39906	10.6	3
0	39907	10.6	5
0	39908	10.6	8
0	39909	10.6	5
0	39910	10.6	3
0	39911	10.6	5
0	39912	10.6	3
0	39913	10.6	1
0	39914	10.6	1
0	39918	10.6	3
0	39919	10.6	5
0	39920	10.6	3
0	39921	10.6	5
0	39922	10.6	8
0	39923	10.6	5
0	39924	10.6	3
0	39925	10.6	5
0	39926	10.6	3
0	39927	10.6	1
0	39928	10.6	1
0	40289	10.65	3
0	40290	10.65	5
0	40291	10.65	3
0	40292	10.65	5
0	40293	10.65	8
0	40294	10.65	5
0	40295	10.65	3
0	40296	10.65	5
0	40297	10.65	3
0	40298	10.65	1
0	40299	10.65	1
0	40491	10.7	3
0	40492	10.7	5
0	40493	10.7	3
0	40494	10.7	5
0	40495	10.7	8
0	40496	10.7	5
0	40497	10.7	3
0	40498	10.7	5
0	40499	10.7	3
0	40500	10.7	1
0	40501	10.7	1
0	40505	10.7	3
0	40506	10.7	5
0	40507	10.7	3
0	40508	10.7	5
0	40509	10.7	8
0	40510	10.7	5
0	40511	10.7	3
0	40512	10.7	5
0	40513	10.7	3
0	40514	10.7	1
0	40515	10.7	1
0	40689	10.75	3
0	40690	10.75	5
0	40691	10.75	3
0	40692	10.75	5
0	40693	10.75	8
0	40694	10.75	5
0	40695	10.75	3
0	40696	10.75	5
0	40697	10.75	3
0	40698	10.75	1
0	40699	10.75	1
0	40788	10.8	3
0	40789	10.8	5
0	40790	10.8	3
0	40791	10.8	5
0	40792	10.8	8
0	40793	10.8	5
0	40794	10.8	3
0	40795	10.8	5
0	40796	10.8	3
0	40797	10.8	1
0	40798	10.8	1
0	40802	10.8	3
0	40803	10.8	5
0	40804	10.8	3
0	40805	10.8	5
0	40806	10.8	8
0	40807	10.8	5
0	40808	10.8	3
0	40809	10.8	5
0	40810	10.8	3
0	40811	10.8	1
0	40812	10.8	1
0	40923	10.85	3
0	40924	10.85	5
0	40925	10.85	3
0	40926	10.85	5
0	40927	10.85	8
0	40928	10.85	5
0	40929	10.85	3
0	40930	10.85	5
0	40931	10.85	3
0	40932	10.85	1
0	40933	10.85	1
0	41022	10.9	3
0	41023	10.9	5
0	41024	10.9	3
0	41025	10.9	5
0	41026	10.9	8
0	41027	10.9	5
0	41028	10.9	3
0	41029	10.9	5
0	41030	10.9	3
0	41031	10.9	1
0	41032	10.9	1
0	41036	10.9	3
0	41037	10.9	5
0	41038	10.9	3
0	41039	10.9	5
0	41040	10.9	8
0	41041	10.9	5
0	41042	10.9	3
0	41043	10.9	5
0	41044	10.9	3
0	41045	10.9	1
0	41046	10.9	1
0	41174	10.95	3
0	41175	10.95	5
0	41176	10.95	3
0	41177	10.95	5
0	41178	10.95	8
0	41179	10.95	5
0	41180	10.95	3
0	41181	10.95	5
0	41182	10.95	3
0	41183	10.95	1
0	41184	10.95	1
0	41296	11	3
0	41297	11	5
0	41298	11	3
0	41299	11	5
0	41300	11	8
0	41301	11	5
0	41302	11	3
0	41303	11	5
0	41304	11	3
0	41305	11	1
0	41306	11	1
0	41310	11	3
0	41311	11	5
0	41312	11	3
0	41313	11	5
0	41314	11	8
0	41315	11	5
0	41316	11	3
0	41317	11	5
0	41318	11	3
0	41319	11	1
0	41320	11	1
0	41637	11.05	3
0	41638	11.05	5
0	41639	11.05	3
0	41640	11.05	5
0	41641	11.05	8
0	41642	11.05	5
0	41643	11.05	3
0	41644	11.05	5
0	41645	11.05	3
0	41646	11.05	1
0	41647	11.05	1
0	41866	11.1	3
0	41867	11.1	5
0	41868	11.1	3
0	41869	11.1	5
0	41870	11.1	8
0	41871	11.1	5
0	41872	11.1	3
0	41873	11.1	5
0	41874	11.1	3
0	41875	11.1	1
0	41876	11.1	1
0	41880	11.1	3
0	41881	11.1	5
0	41882	11.1	3
0	41883	11.1	5
0	41884	11.1	8
0	41885	11.1	5
0	41886	11.1	3
0	41887	11.1	5
0	41888	11.1	3
0	41889	11.1	1
0	41890	11.1	1
0	42144	11.15	3
0	42145	11.15	5
0	42146	11.15	3
0	42147	11.15	5
0	42148	11.15	8
0	42149	11.15	5
0	42150	11.15	3
0	42151	11.15	5
0	42152	11.15	3
0	42153	11.15	1
0	42154	11.15	1
0	42359	11.2	3
0	42360	11.2	5
0	42361	11.2	3
0	42362	11.2	5
0	42363	11.2	8
0	42364	11.2	5
0	42365	11.2	3
0	42366	11.2	5
0	42367	11.2	3
0	42368	11.2	1
0	42369	11.2	1
0	42373	11.2	3
0	42374	11.2	5
0	42375	11.2	3
0	42376	11.2	5
0	42377	11.2	8
0	42378	11.2	5
0	42379	11.2	3
0	42380	11.2	5
0	42381	11.2	3
0	42382	11.2	1
0	42383	11.2	1
0	42517	11.25	3
0	42518	11.25	5
0	42519	11.25	3
0	42520	11.25	5
0	42521	11.25	8
0	42522	11.25	5
0	42523	11.25	3
0	42524	11.25	5
0	42525	11.25	3
0	42526	11.25	1
0	42527	11.25	1
0	42679	11.3	3
0	42680	11.3	5
0	42681	11.3	3
0	42682	11.3	5
0	42683	11.3	8
0	42684	11.3	5
0	42685	11.3	3
0	42686	11.3	5
0	42687	11.3	3
0	42688	11.3	1
0	42689	11.3	1
0	42693	11.3	3
0	42694	11.3	5
0	42695	11.3	3
0	42696	11.3	5
0	42697	11.3	8
0	42698	11.3	5
0	42699	11.3	3
0	42700	11.3	5
0	42701	11.3	3
0	42702	11.3	1
0	42703	11.3	1
0	42814	11.35	3
0	42815	11.35	5
0	42816	11.35	3
0	42817	11.35	5
0	42818	11.35	8
0	42819	11.35	5
0	42820	11.35	3
0	42821	11.35	5
0	42822	11.35	3
0	42823	11.35	1
0	42824	11.35	1
0	42913	11.4	3
0	42914	11.4	5
0	42915	11.4	3
0	42916	11.4	5
0	42917	11.4	8
0	42918	11.4	5
0	42919	11.4	3
0	42920	11.4	5
0	42921	11.4	3
0	42922	11.4	1
0	42923	11.4	1
0	42927	11.4	3
0	42928	11.4	5
0	42929	11.4	3
0	42930	11.4	5
0	42931	11.4	8
0	42932	11.4	5
0	42933	11.4	3
0	42934	11.4	5
0	42935	11.4	3
0	42936	11.4	1
0	42937	11.4	1
0	43071	11.45	3
0	43072	11.45	5
0	43073	11.45	3
0	43074	11.45	5
0	43075	11.45	8
0	43076	11.45	5
0	43077	11.45	3
0	43078	11.45	5
0	43079	11.45	3
0	43080	11.45	1
0	43081	11.45	1
0	43193	11.5	3
0	43194	11.5	5
0	43195	11.5	3
0	43196	11.5	5
0	43197	11.5	8
0	43198	11.5	5
0	43199	11.5	3
0	43200	11.5	5
0	43201	11.5	3
0	43202	11.5	1
0	43203	11.5	1
0	43207	11.5	3
0	43208	11.5	5
0	43209	11.5	3
0	43210	11.5	5
0	43211	11.5	8
0	43212	11.5	5
0	43213	11.5	3
0	43214	11.5	5
0	43215	11.5	3
0	43216	11.5	1
0	43217	11.5	1
0	43374	11.55	3
0	43375	11.55	5
0	43376	11.55	3
0	43377	11.55	5
0	43378	11.55	8
0	43379	11.55	5
0	43380	11.55	3
0	43381	11.55	5
0	43382	11.55	3
0	43383	11.55	1
0	43384	11.55	1
0	43643	11.6	3
0	43644	11.6	5
0	43645	11.6	3
0	43646	11.6	5
0	43647	11.6	8
0	43648	11.6	5
0	43649	11.6	3
0	43650	11.6	5
0	43651	11.6	3
0	43652	11.6	1
0	43653	11.6	1
0	43657	11.6	3
0	43658	11.6	5
0	43659	11.6	3
0	43660	11.6	5
0	43661	11.6	8
0	43662	11.6	5
0	43663	11.6	3
0	43664	11.6	5
0	43665	11.6	3
0	43666	11.6	1
0	43667	11.6	1
0	43850	11.65	3
0	43851	11.65	5
0	43852	11.65	3
0	43853	11.65	5
0	43854	11.65	8
0	43855	11.65	5
0	43856	11.65	3
0	43857	11.65	5
0	43858	11.65	3
0	43859	11.65	1
0	43860	11.65	1
0	44041	11.7	3
0	44042	11.7	5
0	44043	11.7	3
0	44044	11.7	5
0	44045	11.7	8
0	44046	11.7	5
0	44047	11.7	3
0	44048	11.7	5
0	44049	11.7	3
0	44050	11.7	1
0	44051	11.7	1
0	44055	11.7	3
0	44056	11.7	5
0	44057	11.7	3
0	44058	11.7	5
0	44059	11.7	8
0	44060	11.7	5
0	44061	11.7	3
0	44062	11.7	5
0	44063	11.7	3
0	44064	11.7	1
0	44065	11.7	1
0	44343	11.75	3
0	44344	11.75	5
0	44345	11.75	3
0	44346	11.75	5
0	44347	11.75	8
0	44348	11.75	5
0	44349	11.75	3
0	44350	11.75	5
0	44351	11.75	3
0	44352	11.75	1
0	44353	11.75	1
0	44515	11.8	3
0	44516	11.8	5
0	44517	11.8	3
0	44518	11.8	5
0	44519	11.8	8
0	44520	11.8	5
0	44521	11.8	3
0	44522	11.8	5
0	44523	11.8	3
0	44524	11.8	1
0	44525	11.8	1
0	44529	11.8	3
0	44530	11.8	5
0	44531	11.8	3
0	44532	11.8	5
0	44533	11.8	8
0	44534	11.8	5
0	44535	11.8	3
0	44536	11.8	5
0	44537	11.8	3
0	44538	11.8	1
0	44539	11.8	1
0	44696	11.85	3
0	44697	11.85	5
0	44698	11.85	3
0	44699	11.85	5
0	44700	11.85	8
0	44701	11.85	5
0	44702	11.85	3
0	44703	11.85	5
0	44704	11.85	3
0	44705	11.85	1
0	44706	11.85	1
0	44818	11.9	3
0	44819	11.9	5
0	44820	11.9	3
0	44821	11.9	5
0	44822	11.9	8
0	44823	11.9	5
0	44824	11.9	3
0	44825	11.9	5
0	44826	11.9	3
0	44827	11.9	1
0	44828	11.9	1
0	44832	11.9	3
0	44833	11.9	5
0	44834	11.9	3
0	44835	11.9	5
0	44836	11.9	8
0	44837	11.9	5
0	44838	11.9	3
0	44839	11.9	5
0	44840	11.9	3
0	44841	11.9	1
0	44842	11.9	1
0	44953	11.95	3
0	44954	11.95	5
0	44955	11.95	3
0	44956	11.95	5
0	44957	11.95	8
0	44958	11.95	5
0	44959	11.95	3
0	44960	11.95	5
0	44961	11.95	3
0	44962	11.95	1
0	44963	11.95	1
0	45080	12	3
0	45081	12	5
0	45082	12	3
0	45083	12	5
0	45084	12	8
0	45085	12	5
0	45086	12	3
0	45087	12	5
0	45088	12	3
0	45089	12	1
0	45090	12	1
0	45094	12	3
0	45095	12	5
0	45096	12	3
0	45097	12	5
0	45098	12	8
0	45099	12	5
0	45100	12	3
0	45101	12	5
0	45102	12	3
0	45103	12	1
0	45104	12	1
0	45238	12.05	3
0	45239	12.05	5
0	45240	12.05	3
0	45241	12.05	5
0	45242	12.05	8
0	45243	12.05	5
0	45244	12.05	3
0	45245	12.05	5
0	45246	12.05	3
0	45247	12.05	1
0	45248	12.05	1
0	45434	12.1	3
0	45435	12.1	5
0	45436	12.1	3
0	45437	12.1	5
0	45438	12.1	8
0	45439	12.1	5
0	45440	12.1	3
0	45441	12.1	5
0	45442	12.1	3
0	45443	12.1	1
0	45444	12.1	1
0	45448	12.1	3
0	45449	12.1	5
0	45450	12.1	3
0	45451	12.1	5
0	45452	12.1	8
0	45453	12.1	5
0	45454	12.1	3
0	45455	12.1	5
0	45456	12.1	3
0	45457	12.1	1
0	45458	12.1	1
0	45764	12.15	3
0	45765	12.15	5
0	45766	12.15	3
0	45767	12.15	5
0	45768	12.15	8
0	45769	12.15	5
0	45770	12.15	3
0	45771	12.15	5
0	45772	12.15	3
0	45773	12.15	1
0	45774	12.15	1
0	45915	12.2	3
0	45916	12.2	5
0	45917	12.2	3
0	45918	12.2	5
0	45919	12.2	8
0	45920	12.2	5
0	45921	12.2	3
0	45922	12.2	5
0	45923	12.2	3
0	45924	12.2	1
0	45925	12.2	1
0	45929	12.2	3
0	45930	12.2	5
0	45931	12.2	3
0	45932	12.2	5
0	45933	12.2	8
0	45934	12.2	5
0	45935	12.2	3
0	45936	12.2	5
0	45937	12.2	3
0	45938	12.2	1
0	45939	12.2	1
0	46172	12.25	3
0	46173	12.25	5
0	46174	12.25	3
0	46175	12.25	5
0	46176	12.25	8
0	46177	12.25	5
0	46178	12.25	3
0	46179	12.25	5
0	46180	12.25	3
0	46181	12.25	1
0	46182	12.25	1
0	46407	12.3	3
0	46408	12.3	5
0	46409	12.3	3
0	46410	12.3	5
0	46411	12.3	8
0	46412	12.3	5
0	46413	12.3	3
0	46414	12.3	5
0	46415	12.3	3
0	46416	12.3	1
0	46417	12.3	1
0	46421	12.3	3
0	46422	12.3	5
0	46423	12.3	3
0	46424	12.3	5
0	46425	12.3	8
0	46426	12.3	5
0	46427	12.3	3
0	46428	12.3	5
0	46429	12.3	3
0	46430	12.3	1
0	46431	12.3	1
0	46693	12.35	3
0	46694	12.35	5
0	46695	12.35	3
0	46696	12.35	5
0	46697	12.35	8
0	46698	12.35	5
0	46699	12.35	3
0	46700	12.35	5
0	46701	12.35	3
0	46702	12.35	1
0	46703	12.35	1
0	46900	12.4	3
0	46901	12.4	5
0	46902	12.4	3
0	46903	12.4	5
0	46904	12.4	8
0	46905	12.4	5
0	46906	12.4	3
0	46907	12.4	5
0	46908	12.4	3
0	46909	12.4	1
0	46910	12.4	1
0	46914	12.4	3
0	46915	12.4	5
0	46916	12.4	3
0	46917	12.4	5
0	46918	12.4	8
0	46919	12.4	5
0	46920	12.4	3
0	46921	12.4	5
0	46922	12.4	3
0	46923	12.4	1
0	46924	12.4	1
0	47058	12.45	3
0	47059	12.45	5
0	47060	12.45	3
0	47061	12.45	5
0	47062	12.45	8
0	47063	12.45	5
0	47064	12.45	3
0	47065	12.45	5
0	47066	12.45	3
0	47067	12.45	1
0	47068	12.45	1
0	47162	12.5	3
0	47163	12.5	5
0	47164	12.5	3
0	47165	12.5	5
0	47166	12.5	8
0	47167	12.5	5
0	47168	12.5	3
0	47169	12.5	5
0	47170	12.5	3
0	47171	12.5	1
0	47172	12.5	1
0	47176	12.5	3
0	47177	12.5	5
0	47178	12.5	3
0	47179	12.5	5
0	47180	12.5	8
0	47181	12.5	5
0	47182	12.5	3
0	47183	12.5	5
0	47184	12.5	3
0	47185	12.5	1
0	47186	12.5	1
0	47314	12.55	3
0	47315	12.55	5
0	47316	12.55	3
0	47317	12.55	5
0	47318	12.55	8
0	47319	12.55	5
0	47320	12.55	3
0	47321	12.55	5
0	47322	12.55	3
0	47323	12.55	1
0	47324	12.55	1
0	47418	12.6	3
0	47419	12.6	5
0	47420	12.6	3
0	47421	12.6	5
0	47422	12.6	8
0	47423	12.6	5
0	47424	12.6	3
0	47425	12.6	5
0	47426	12.6	3
0	47427	12.6	1
0	47428	12.6	1
0	47432	12.6	3
0	47433	12.6	5
0	47434	12.6	3
0	47435	12.6	5
0	47436	12.6	8
0	47437	12.6	5
0	47438	12.6	3
0	47439	12.6	5
0	47440	12.6	3
0	47441	12.6	1
0	47442	12.6	1
0	47673	12.65	3
0	47674	12.65	5
0	47675	12.65	3
0	47676	12.65	5
0	47677	12.65	8
0	47678	12.65	5
0	47679	12.65	3
0	47680	12.65	5
0	47681	12.65	3
0	47682	12.65	1
0	47683	12.65	1
0	47937	12.7	3
0	47938	12.7	5
0	47939	12.7	3
0	47940	12.7	5
0	47941	12.7	8
0	47942	12.7	5
0	47943	12.7	3
0	47944	12.7	5
0	47945	12.7	3
0	47946	12.7	1
0	47947	12.7	1
0	47951	12.7	3
0	47952	12.7	5
0	47953	12.7	3
0	47954	12.7	5
0	47955	12.7	8
0	47956	12.7	5
0	47957	12.7	3
0	47958	12.7	5
0	47959	12.7	3
0	47960	12.7	1
0	47961	12.7	1
0	48097	12.75	3
0	48098	12.75	5
0	48099	12.75	3
0	48100	12.75	5
0	48101	12.75	8
0	48102	12.75	5
0	48103	12.75	3
0	48104	12.75	5
0	48105	12.75	3
0	48106	12.75	1
0	48107	12.75	1
0	48356	12.8	3
0	48357	12.8	5
0	48358	12.8	3
0	48359	12.8	5
0	48360	12.8	8
0	48361	12.8	5
0	48362	12.8	3
0	48363	12.8	5
0	48364	12.8	3
0	48365	12.8	1
0	48366	12.8	1
0	48370	12.8	3
0	48371	12.8	5
0	48372	12.8	3
0	48373	12.8	5
0	48374	12.8	8
0	48375	12.8	5
0	48376	12.8	3
0	48377	12.8	5
0	48378	12.8	3
0	48379	12.8	1
0	48380	12.8	1
0	48617	12.85	3
0	48618	12.85	5
0	48619	12.85	3
0	48620	12.85	5
0	48621	12.85	8
0	48622	12.85	5
0	48623	12.85	3
0	48624	12.85	5
0	48625	12.85	3
0	48626	12.85	1
0	48627	12.85	1
0	48770	12.9	3
0	48771	12.9	5
0	48772	12.9	3
0	48773	12.9	5
0	48774	12.9	8
0	48775	12.9	5
0	48776	12.9	3
0	48777	12.9	5
0	48778	12.9	3
0	48779	12.9	1
0	48780	12.9	1
0	48784	12.9	3
0	48785	12.9	5
0	48786	12.9	3
0	48787	12.9	5
0	48788	12.9	8
0	48789	12.9	5
0	48790	12.9	3
0	48791	12.9	5
0	48792	12.9	3
0	48793	12.9	1
0	48794	12.9	1
0	48974	12.95	3
0	48975	12.95	5
0	48976	12.95	3
0	48977	12.95	5
0	48978	12.95	8
0	48979	12.95	5
0	48980	12.95	3
0	48981	12.95	5
0	48982	12.95	3
0	48983	12.95	1
0	48984	12.95	1
0	49078	13	3
0	49079	13	5
0	49080	13	3
0	49081	13	5
0	49082	13	8
0	49083	13	5
0	49084	13	3
0	49085	13	5
0	49086	13	3
0	49087	13	1
0	49088	13	1
0	49092	13	3
0	49093	13	5
0	49094	13	3
0	49095	13	5
0	49096	13	8
0	49097	13	5
0	49098	13	3
0	49099	13	5
0	49100	13	3
0	49101	13	1
0	49102	13	1
0	49257	13.05	3
0	49258	13.05	5
0	49259	13.05	3
0	49260	13.05	5
0	49261	13.05	8
0	49262	13.05	5
0	49263	13.05	3
0	49264	13.05	5
0	49265	13.05	3
0	49266	13.05	1
0	49267	13.05	1
0	49390	13.1	3
0	49391	13.1	5
0	49392	13.1	3
0	49393	13.1	5
0	49394	13.1	8
0	49395	13.1	5
0	49396	13.1	3
0	49397	13.1	5
0	49398	13.1	3
0	49399	13.1	1
0	49400	13.1	1
0	49404	13.1	3
0	49405	13.1	5
0	49406	13.1	3
0	49407	13.1	5
0	49408	13.1	8
0	49409	13.1	5
0	49410	13.1	3
0	49411	13.1	5
0	49412	13.1	3
0	49413	13.1	1
0	49414	13.1	1
0	49538	13.15	3
0	49539	13.15	5
0	49540	13.15	3
0	49541	13.15	5
0	49542	13.15	8
0	49543	13.15	5
0	49544	13.15	3
0	49545	13.15	5
0	49546	13.15	3
0	49547	13.15	1
0	49548	13.15	1
0	49765	13.2	3
0	49766	13.2	5
0	49767	13.2	3
0	49768	13.2	5
0	49769	13.2	8
0	49770	13.2	5
0	49771	13.2	3
0	49772	13.2	5
0	49773	13.2	3
0	49774	13.2	1
0	49775	13.2	1
0	49779	13.2	3
0	49780	13.2	5
0	49781	13.2	3
0	49782	13.2	5
0	49783	13.2	8
0	49784	13.2	5
0	49785	13.2	3
0	49786	13.2	5
0	49787	13.2	3
0	49788	13.2	1
0	49789	13.2	1
0	50074	13.25	3
0	50075	13.25	5
0	50076	13.25	3
0	50077	13.25	5
0	50078	13.25	8
0	50079	13.25	5
0	50080	13.25	3
0	50081	13.25	5
0	50082	13.25	3
0	50083	13.25	1
0	50084	13.25	1
0	50294	13.3	3
0	50295	13.3	5
0	50296	13.3	3
0	50297	13.3	5
0	50298	13.3	8
0	50299	13.3	5
0	50300	13.3	3
0	50301	13.3	5
0	50302	13.3	3
0	50303	13.3	1
0	50304	13.3	1
0	50308	13.3	3
0	50309	13.3	5
0	50310	13.3	3
0	50311	13.3	5
0	50312	13.3	8
0	50313	13.3	5
0	50314	13.3	3
0	50315	13.3	5
0	50316	13.3	3
0	50317	13.3	1
0	50318	13.3	1
0	50662	13.35	3
0	50663	13.35	5
0	50664	13.35	3
0	50665	13.35	5
0	50666	13.35	8
0	50667	13.35	5
0	50668	13.35	3
0	50669	13.35	5
0	50670	13.35	3
0	50671	13.35	1
0	50672	13.35	1
0	50936	13.4	3
0	50937	13.4	5
0	50938	13.4	3
0	50939	13.4	5
0	50940	13.4	8
0	50941	13.4	5
0	50942	13.4	3
0	50943	13.4	5
0	50944	13.4	3
0	50945	13.4	1
0	50946	13.4	1
0	50950	13.4	3
0	50951	13.4	5
0	50952	13.4	3
0	50953	13.4	5
0	50954	13.4	8
0	50955	13.4	5
0	50956	13.4	3
0	50957	13.4	5
0	50958	13.4	3
0	50959	13.4	1
0	50960	13.4	1
0	51094	13.45	3
0	51095	13.45	5
0	51096	13.45	3
0	51097	13.45	5
0	51098	13.45	8
0	51099	13.45	5
0	51100	13.45	3
0	51101	13.45	5
0	51102	13.45	3
0	51103	13.45	1
0	51104	13.45	1
0	51285	13.5	3
0	51286	13.5	5
0	51287	13.5	3
0	51288	13.5	5
0	51289	13.5	8
0	51290	13.5	5
0	51291	13.5	3
0	51292	13.5	5
0	51293	13.5	3
0	51294	13.5	1
0	51295	13.5	1
0	51299	13.5	3
0	51300	13.5	5
0	51301	13.5	3
0	51302	13.5	5
0	51303	13.5	8
0	51304	13.5	5
0	51305	13.5	3
0	51306	13.5	5
0	51307	13.5	3
0	51308	13.5	1
0	51309	13.5	1
0	51443	13.55	3
0	51444	13.55	5
0	51445	13.55	3
0	51446	13.55	5
0	51447	13.55	8
0	51448	13.55	5
0	51449	13.55	3
0	51450	13.55	5
0	51451	13.55	3
0	51452	13.55	1
0	51453	13.55	1
0	51586	13.6	3
0	51587	13.6	5
0	51588	13.6	3
0	51589	13.6	5
0	51590	13.6	8
0	51591	13.6	5
0	51592	13.6	3
0	51593	13.6	5
0	51594	13.6	3
0	51595	13.6	1
0	51596	13.6	1
0	51600	13.6	3
0	51601	13.6	5
0	51602	13.6	3
0	51603	13.6	5
0	51604	13.6	8
0	51605	13.6	5
0	51606	13.6	3
0	51607	13.6	5
0	51608	13.6	3
0	51609	13.6	1
0	51610	13.6	1
0	51744	13.65	3
0	51745	13.65	5
0	51746	13.65	3
0	51747	13.65	5
0	51748	13.65	8
0	51749	13.65	5
0	51750	13.65	3
0	51751	13.65	5
0	51752	13.65	3
0	51753	13.65	1
0	51754	13.65	1
0	51843	13.7	3
0	51844	13.7	5
0	51845	13.7	3
0	51846	13.7	5
0	51847	13.7	8
0	51848	13.7	5
0	51849	13.7	3
0	51850	13.7	5
0	51851	13.7	3
0	51852	13.7	1
0	51853	13.7	1
0	51857	13.7	3
0	51858	13.7	5
0	51859	13.7	3
0	51860	13.7	5
0	51861	13.7	8
0	51862	13.7	5
0	51863	13.7	3
0	51864	13.7	5
0	51865	13.7	3
0	51866	13.7	1
0	51867	13.7	1
0	52100	13.75	3
0	52101	13.75	5
0	52102	13.75	3
0	52103	13.75	5
0	52104	13.75	8
0	52105	13.75	5
0	52106	13.75	3
0	52107	13.75	5
0	52108	13.75	3
0	52109	13.75	1
0	52110	13.75	1
0	52378	13.8	3
0	52379	13.8	5
0	52380	13.8	3
0	52381	13.8	5
0	52382	13.8	8
0	52383	13.8	5
0	52384	13.8	3
0	52385	13.8	5
0	52386	13.8	3
0	52387	13.8	1
0	52388	13.8	1
0	52392	13.8	3
0	52393	13.8	5
0	52394	13.8	3
0	52395	13.8	5
0	52396	13.8	8
0	52397	13.8	5
0	52398	13.8	3
0	52399	13.8	5
0	52400	13.8	3
0	52401	13.8	1
0	52402	13.8	1
0	52544	13.85	3
0	52545	13.85	5
0	52546	13.85	3
0	52547	13.85	5
0	52548	13.85	8
0	52549	13.85	5
0	52550	13.85	3
0	52551	13.85	5
0	52552	13.85	3
0	52553	13.85	1
0	52554	13.85	1
0	52808	13.9	3
0	52809	13.9	5
0	52810	13.9	3
0	52811	13.9	5
0	52812	13.9	8
0	52813	13.9	5
0	52814	13.9	3
0	52815	13.9	5
0	52816	13.9	3
0	52817	13.9	1
0	52818	13.9	1
0	52822	13.9	3
0	52823	13.9	5
0	52824	13.9	3
0	52825	13.9	5
0	52826	13.9	8
0	52827	13.9	5
0	52828	13.9	3
0	52829	13.9	5
0	52830	13.9	3
0	52831	13.9	1
0	52832	13.9	1
0	53120	13.95	3
0	53121	13.95	5
0	53122	13.95	3
0	53123	13.95	5
0	53124	13.95	8
0	53125	13.95	5
0	53126	13.95	3
0	53127	13.95	5
0	53128	13.95	3
0	53129	13.95	1
0	53130	13.95	1
0	53291	14	3
0	53292	14	5
0	53293	14	3
0	53294	14	5
0	53295	14	8
0	53296	14	5
0	53297	14	3
0	53298	14	5
0	53299	14	3
0	53300	14	1
0	53301	14	1
0	53305	14	3
0	53306	14	5
0	53307	14	3
0	53308	14	5
0	53309	14	8
0	53310	14	5
0	53311	14	3
0	53312	14	5
0	53313	14	3
0	53314	14	1
0	53315	14	1
0	53489	14.05	3
0	53490	14.05	5
0	53491	14.05	3
0	53492	14.05	5
0	53493	14.05	8
0	53494	14.05	5
0	53495	14.05	3
0	53496	14.05	5
0	53497	14.05	3
0	53498	14.05	1
0	53499	14.05	1
0	53645	14.1	3
0	53646	14.1	5
0	53647	14.1	3
0	53648	14.1	5
0	53649	14.1	8
0	53650	14.1	5
0	53651	14.1	3
0	53652	14.1	5
0	53653	14.1	3
0	53654	14.1	1
0	53655	14.1	1
0	53659	14.1	3
0	53660	14.1	5
0	53661	14.1	3
0	53662	14.1	5
0	53663	14.1	8
0	53664	14.1	5
0	53665	14.1	3
0	53666	14.1	5
0	53667	14.1	3
0	53668	14.1	1
0	53669	14.1	1
0	53837	14.15	3
0	53838	14.15	5
0	53839	14.15	3
0	53840	14.15	5
0	53841	14.15	8
0	53842	14.15	5
0	53843	14.15	3
0	53844	14.15	5
0	53845	14.15	3
0	53846	14.15	1
0	53847	14.15	1
0	53936	14.2	3
0	53937	14.2	5
0	53938	14.2	3
0	53939	14.2	5
0	53940	14.2	8
0	53941	14.2	5
0	53942	14.2	3
0	53943	14.2	5
0	53944	14.2	3
0	53945	14.2	1
0	53946	14.2	1
0	53950	14.2	3
0	53951	14.2	5
0	53952	14.2	3
0	53953	14.2	5
0	53954	14.2	8
0	53955	14.2	5
0	53956	14.2	3
0	53957	14.2	5
0	53958	14.2	3
0	53959	14.2	1
0	53960	14.2	1
0	54094	14.25	3
0	54095	14.25	5
0	54096	14.25	3
0	54097	14.25	5
0	54098	14.25	8
0	54099	14.25	5
0	54100	14.25	3
0	54101	14.25	5
0	54102	14.25	3
0	54103	14.25	1
0	54104	14.25	1
0	54300	14.3	3
0	54301	14.3	5
0	54302	14.3	3
0	54303	14.3	5
0	54304	14.3	8
0	54305	14.3	5
0	54306	14.3	3
0	54307	14.3	5
0	54308	14.3	3
0	54309	14.3	1
0	54310	14.3	1
0	54314	14.3	3
0	54315	14.3	5
0	54316	14.3	3
0	54317	14.3	5
0	54318	14.3	8
0	54319	14.3	5
0	54320	14.3	3
0	54321	14.3	5
0	54322	14.3	3
0	54323	14.3	1
0	54324	14.3	1
0	54571	14.35	3
0	54572	14.35	5
0	54573	14.35	3
0	54574	14.35	5
0	54575	14.35	8
0	54576	14.35	5
0	54577	14.35	3
0	54578	14.35	5
0	54579	14.35	3
0	54580	14.35	1
0	54581	14.35	1
0	54698	14.4	3
0	54699	14.4	5
0	54700	14.4	3
0	54701	14.4	5
0	54702	14.4	8
0	54703	14.4	5
0	54704	14.4	3
0	54705	14.4	5
0	54706	14.4	3
0	54707	14.4	1
0	54708	14.4	1
0	54712	14.4	3
0	54713	14.4	5
0	54714	14.4	3
0	54715	14.4	5
0	54716	14.4	8
0	54717	14.4	5
0	54718	14.4	3
0	54719	14.4	5
0	54720	14.4	3
0	54721	14.4	1
0	54722	14.4	1
0	54985	14.45	3
0	54986	14.45	5
0	54987	14.45	3
0	54988	14.45	5
0	54989	14.45	8
0	54990	14.45	5
0	54991	14.45	3
0	54992	14.45	5
0	54993	14.45	3
0	54994	14.45	1
0	54995	14.45	1
0	55201	14.5	3
0	55202	14.5	5
0	55203	14.5	3
0	55204	14.5	5
0	55205	14.5	8
0	55206	14.5	5
0	55207	14.5	3
0	55208	14.5	5
0	55209	14.5	3
0	55210	14.5	1
0	55211	14.5	1
0	55215	14.5	3
0	55216	14.5	5
0	55217	14.5	3
0	55218	14.5	5
0	55219	14.5	8
0	55220	14.5	5
0	55221	14.5	3
0	55222	14.5	5
0	55223	14.5	3
0	55224	14.5	1
0	55225	14.5	1
0	55378	14.55	3
0	55379	14.55	5
0	55380	14.55	3
0	55381	14.55	5
0	55382	14.55	8
0	55383	14.55	5
0	55384	14.55	3
0	55385	14.55	5
0	55386	14.55	3
0	55387	14.55	1
0	55388	14.55	1
0	55560	14.6	3
0	55561	14.6	5
0	55562	14.6	3
0	55563	14.6	5
0	55564	14.6	8
0	55565	14.6	5
0	55566	14.6	3
0	55567	14.6	5
0	55568	14.6	3
0	55569	14.6	1
0	55570	14.6	1
0	55574	14.6	3
0	55575	14.6	5
0	55576	14.6	3
0	55577	14.6	5
0	55578	14.6	8
0	55579	14.6	5
0	55580	14.6	3
0	55581	14.6	5
0	55582	14.6	3
0	55583	14.6	1
0	55584	14.6	1
0	55749	14.65	3
0	55750	14.65	5
0	55751	14.65	3
0	55752	14.65	5
0	55753	14.65	8
0	55754	14.65	5
0	55755	14.65	3
0	55756	14.65	5
0	55757	14.65	3
0	55758	14.65	1
0	55759	14.65	1
0	55871	14.7	3
0	55872	14.7	5
0	55873	14.7	3
0	55874	14.7	5
0	55875	14.7	8
0	55876	14.7	5
0	55877	14.7	3
0	55878	14.7	5
0	55879	14.7	3
0	55880	14.7	1
0	55881	14.7	1
0	55885	14.7	3
0	55886	14.7	5
0	55887	14.7	3
0	55888	14.7	5
0	55889	14.7	8
0	55890	14.7	5
0	55891	14.7	3
0	55892	14.7	5
0	55893	14.7	3
0	55894	14.7	1
0	55895	14.7	1
0	56006	14.75	3
0	56007	14.75	5
0	56008	14.75	3
0	56009	14.75	5
0	56010	14.75	8
0	56011	14.75	5
0	56012	14.75	3
0	56013	14.75	5
0	56014	14.75	3
0	56015	14.75	1
0	56016	14.75	1
0	56127	14.8	3
0	56128	14.8	5
0	56129	14.8	3
0	56130	14.8	5
0	56131	14.8	8
0	56132	14.8	5
0	56133	14.8	3
0	56134	14.8	5
0	56135	14.8	3
0	56136	14.8	1
0	56137	14.8	1
0	56141	14.8	3
0	56142	14.8	5
0	56143	14.8	3
0	56144	14.8	5
0	56145	14.8	8
0	56146	14.8	5
0	56147	14.8	3
0	56148	14.8	5
0	56149	14.8	3
0	56150	14.8	1
0	56151	14.8	1
0	56331	14.85	3
0	56332	14.85	5
0	56333	14.85	3
0	56334	14.85	5
0	56335	14.85	8
0	56336	14.85	5
0	56337	14.85	3
0	56338	14.85	5
0	56339	14.85	3
0	56340	14.85	1
0	56341	14.85	1
0	56509	14.9	3
0	56510	14.9	5
0	56511	14.9	3
0	56512	14.9	5
0	56513	14.9	8
0	56514	14.9	5
0	56515	14.9	3
0	56516	14.9	5
0	56517	14.9	3
0	56518	14.9	1
0	56519	14.9	1
0	56523	14.9	3
0	56524	14.9	5
0	56525	14.9	3
0	56526	14.9	5
0	56527	14.9	8
0	56528	14.9	5
0	56529	14.9	3
0	56530	14.9	5
0	56531	14.9	3
0	56532	14.9	1
0	56533	14.9	1
0	56667	14.95	3
0	56668	14.95	5
0	56669	14.95	3
0	56670	14.95	5
0	56671	14.95	8
0	56672	14.95	5
0	56673	14.95	3
0	56674	14.95	5
0	56675	14.95	3
0	56676	14.95	1
0	56677	14.95	1
0	56881	15	3
0	56882	15	5
0	56883	15	3
0	56884	15	5
0	56885	15	8
0	56886	15	5
0	56887	15	3
0	56888	15	5
0	56889	15	3
0	56890	15	1
0	56891	15	1
0	56895	15	3
0	56896	15	5
0	56897	15	3
0	56898	15	5
0	56899	15	8
0	56900	15	5
0	56901	15	3
0	56902	15	5
0	56903	15	3
0	56904	15	1
0	56905	15	1
0	57079	15.05	3
0	57080	15.05	5
0	57081	15.05	3
0	57082	15.05	5
0	57083	15.05	8
0	57084	15.05	5
0	57085	15.05	3
0	57086	15.05	5
0	57087	15.05	3
0	57088	15.05	1
0	57089	15.05	1
0	57229	15.1	3
0	57230	15.1	5
0	57231	15.1	3
0	57232	15.1	5
0	57233	15.1	8
0	57234	15.1	5
0	57235	15.1	3
0	57236	15.1	5
0	57237	15.1	3
0	57238	15.1	1
0	57239	15.1	1
0	57243	15.1	3
0	57244	15.1	5
0	57245	15.1	3
0	57246	15.1	5
0	57247	15.1	8
0	57248	15.1	5
0	57249	15.1	3
0	57250	15.1	5
0	57251	15.1	3
0	57252	15.1	1
0	57253	15.1	1
0	57423	15.15	3
0	57424	15.15	5
0	57425	15.15	3
0	57426	15.15	5
0	57427	15.15	8
0	57428	15.15	5
0	57429	15.15	3
0	57430	15.15	5
0	57431	15.15	3
0	57432	15.15	1
0	57433	15.15	1
0	57568	15.2	3
0	57569	15.2	5
0	57570	15.2	3
0	57571	15.2	5
0	57572	15.2	8
0	57573	15.2	5
0	57574	15.2	3
0	57575	15.2	5
0	57576	15.2	3
0	57577	15.2	1
0	57578	15.2	1
0	57582	15.2	3
0	57583	15.2	5
0	57584	15.2	3
0	57585	15.2	5
0	57586	15.2	8
0	57587	15.2	5
0	57588	15.2	3
0	57589	15.2	5
0	57590	15.2	3
0	57591	15.2	1
0	57592	15.2	1
0	57777	15.25	3
0	57778	15.25	5
0	57779	15.25	3
0	57780	15.25	5
0	57781	15.25	8
0	57782	15.25	5
0	57783	15.25	3
0	57784	15.25	5
0	57785	15.25	3
0	57786	15.25	1
0	57787	15.25	1
0	57876	15.3	3
0	57877	15.3	5
0	57878	15.3	3
0	57879	15.3	5
0	57880	15.3	8
0	57881	15.3	5
0	57882	15.3	3
0	57883	15.3	5
0	57884	15.3	3
0	57885	15.3	1
0	57886	15.3	1
0	57890	15.3	3
0	57891	15.3	5
0	57892	15.3	3
0	57893	15.3	5
0	57894	15.3	8
0	57895	15.3	5
0	57896	15.3	3
0	57897	15.3	5
0	57898	15.3	3
0	57899	15.3	1
0	57900	15.3	1
0	58057	15.35	3
0	58058	15.35	5
0	58059	15.35	3
0	58060	15.35	5
0	58061	15.35	8
0	58062	15.35	5
0	58063	15.35	3
0	58064	15.35	5
0	58065	15.35	3
0	58066	15.35	1
0	58067	15.35	1
0	58229	15.4	3
0	58230	15.4	5
0	58231	15.4	3
0	58232	15.4	5
0	58233	15.4	8
0	58234	15.4	5
0	58235	15.4	3
0	58236	15.4	5
0	58237	15.4	3
0	58238	15.4	1
0	58239	15.4	1
0	58243	15.4	3
0	58244	15.4	5
0	58245	15.4	3
0	58246	15.4	5
0	58247	15.4	8
0	58248	15.4	5
0	58249	15.4	3
0	58250	15.4	5
0	58251	15.4	3
0	58252	15.4	1
0	58253	15.4	1
0	58433	15.45	3
0	58434	15.45	5
0	58435	15.45	3
0	58436	15.45	5
0	58437	15.45	8
0	58438	15.45	5
0	58439	15.45	3
0	58440	15.45	5
0	58441	15.45	3
0	58442	15.45	1
0	58443	15.45	1
0	58554	15.5	3
0	58555	15.5	5
0	58556	15.5	3
0	58557	15.5	5
0	58558	15.5	8
0	58559	15.5	5
0	58560	15.5	3
0	58561	15.5	5
0	58562	15.5	3
0	58563	15.5	1
0	58564	15.5	1
0	58568	15.5	3
0	58569	15.5	5
0	58570	15.5	3
0	58571	15.5	5
0	58572	15.5	8
0	58573	15.5	5
0	58574	15.5	3
0	58575	15.5	5
0	58576	15.5	3
0	58577	15.5	1
0	58578	15.5	1
0	58809	15.55	3
0	58810	15.55	5
0	58811	15.55	3
0	58812	15.55	5
0	58813	15.55	8
0	58814	15.55	5
0	58815	15.55	3
0	58816	15.55	5
0	58817	15.55	3
0	58818	15.55	1
0	58819	15.55	1
0	59024	15.6	3
0	59025	15.6	5
0	59026	15.6	3
0	59027	15.6	5
0	59028	15.6	8
0	59029	15.6	5
0	59030	15.6	3
0	59031	15.6	5
0	59032	15.6	3
0	59033	15.6	1
0	59034	15.6	1
0	59038	15.6	3
0	59039	15.6	5
0	59040	15.6	3
0	59041	15.6	5
0	59042	15.6	8
0	59043	15.6	5
0	59044	15.6	3
0	59045	15.6	5
0	59046	15.6	3
0	59047	15.6	1
0	59048	15.6	1
0	59236	15.65	3
0	59237	15.65	5
0	59238	15.65	3
0	59239	15.65	5
0	59240	15.65	8
0	59241	15.65	5
0	59242	15.65	3
0	59243	15.65	5
0	59244	15.65	3
0	59245	15.65	1
0	59246	15.65	1
0	59381	15.7	3
0	59382	15.7	5
0	59383	15.7	3
0	59384	15.7	5
0	59385	15.7	8
0	59386	15.7	5
0	59387	15.7	3
0	59388	15.7	5
0	59389	15.7	3
0	59390	15.7	1
0	59391	15.7	1
0	59395	15.7	3
0	59396	15.7	5
0	59397	15.7	3
0	59398	15.7	5
0	59399	15.7	8
0	59400	15.7	5
0	59401	15.7	3
0	59402	15.7	5
0	59403	15.7	3
0	59404	15.7	1
0	59405	15.7	1
0	59544	15.75	3
0	59545	15.75	5
0	59546	15.75	3
0	59547	15.75	5
0	59548	15.75	8
0	59549	15.75	5
0	59550	15.75	3
0	59551	15.75	5
0	59552	15.75	3
0	59553	15.75	1
0	59554	15.75	1
0	59756	15.8	3
0	59757	15.8	5
0	59758	15.8	3
0	59759	15.8	5
0	59760	15.8	8
0	59761	15.8	5
0	59762	15.8	3
0	59763	15.8	5
0	59764	15.8	3
0	59765	15.8	1
0	59766	15.8	1
0	59770	15.8	3
0	59771	15.8	5
0	59772	15.8	3
0	59773	15.8	5
0	59774	15.8	8
0	59775	15.8	5
0	59776	15.8	3
0	59777	15.8	5
0	59778	15.8	3
0	59779	15.8	1
0	59780	15.8	1
0	59891	15.85	3
0	59892	15.85	5
0	59893	15.85	3
0	59894	15.85	5
0	59895	15.85	8
0	59896	15.85	5
0	59897	15.85	3
0	59898	15.85	5
0	59899	15.85	3
0	59900	15.85	1
0	59901	15.85	1
0	60018	15.9	3
0	60019	15.9	5
0	60020	15.9	3
0	60021	15.9	5
0	60022	15.9	8
0	60023	15.9	5
0	60024	15.9	3
0	60025	15.9	5
0	60026	15.9	3
0	60027	15.9	1
0	60028	15.9	1
0	60032	15.9	3
0	60033	15.9	5
0	60034	15.9	3
0	60035	15.9	5
0	60036	15.9	8
0	60037	15.9	5
0	60038	15.9	3
0	60039	15.9	5
0	60040	15.9	3
0	60041	15.9	1
0	60042	15.9	1
0	60239	15.95	3
0	60240	15.95	5
0	60241	15.95	3
0	60242	15.95	5
0	60243	15.95	8
0	60244	15.95	5
0	60245	15.95	3
0	60246	15.95	5
0	60247	15.95	3
0	60248	15.95	1
0	60249	15.95	1
0	60424	16	3
0	60425	16	5
0	60426	16	3
0	60427	16	5
0	60428	16	8
0	60429	16	5
0	60430	16	3
0	60431	16	5
0	60432	16	3
0	60433	16	1
0	60434	16	1
0	60438	16	3
0	60439	16	5
0	60440	16	3
0	60441	16	5
0	60442	16	8
0	60443	16	5
0	60444	16	3
0	60445	16	5
0	60446	16	3
0	60447	16	1
0	60448	16	1
0	60643	16.05	3
0	60644	16.05	5
0	60645	16.05	3
0	60646	16.05	5
0	60647	16.05	8
0	60648	16.05	5
0	60649	16.05	3
0	60650	16.05	5
0	60651	16.05	3
0	60652	16.05	1
0	60653	16.05	1
0	60917	16.1	3
0	60918	16.1	5
0	60919	16.1	3
0	60920	16.1	5
0	60921	16.1	8
0	60922	16.1	5
0	60923	16.1	3
0	60924	16.1	5
0	60925	16.1	3
0	60926	16.1	1
0	60927	16.1	1
0	60931	16.1	3
0	60932	16.1	5
0	60933	16.1	3
0	60934	16.1	5
0	60935	16.1	8
0	60936	16.1	5
0	60937	16.1	3
0	60938	16.1	5
0	60939	16.1	3
0	60940	16.1	1
0	60941	16.1	1
0	61143	16.15	3
0	61144	16.15	5
0	61145	16.15	3
0	61146	16.15	5
0	61147	16.15	8
0	61148	16.15	5
0	61149	16.15	3
0	61150	16.15	5
[...]
3	521280	123.661786728067	730803
3	521301	123.675626728067	730944
3	521322	123.689466728067	731085
3	521479	123.703306728067	731226
3	522371	123.93396899642	731367
3	522398	123.94780899642	731508
3	522581	123.97548899642	731649
3	522599	123.98932899642	731790
3	522753	124.00316899642	731931
3	522795	124.01700899642	732072
3	522831	124.03084899642	732213
3	522849	124.04468899642	732354
3	522997	124.07236899642	732495
3	523175	124.10004899642	732636
3	523185	124.11388899642	732777
3	523253	124.12772899642	732918
3	523271	124.14156899642	733059
3	523392	124.15540899642	733200
3	523425	124.16924899642	733341
3	523455	124.19692899642	733482
3	523607	124.21076899642	733623
3	523625	124.22460899642	733764
3	523643	124.23844899642	733905
3	523764	124.25228899642	734046
3	525052	124.498426728067	734187
3	525208	124.512266728067	734328
3	525263	124.526106728067	734469
3	525281	124.539946728067	734610
3	525402	124.553786728067	734751
3	525427	124.567626728067	734892
3	525454	124.581466728067	735033
3	525613	124.609146728067	735174
3	525676	124.622986728067	735315
3	525694	124.636826728067	735456
3	525815	124.650666728067	735597
3	525825	124.664506728067	735738
3	525893	124.678346728067	735879
3	526048	124.706026728067	736020
3	526066	124.719866728067	736161
3	526084	124.733706728067	736302
3	526102	124.747546728067	736443
3	526221	124.761386728067	736584
3	526260	124.775226728067	736725
3	526278	124.789066728067	736866
3	526432	124.802906728067	737007
3	526465	124.816746728067	737148
3	526492	124.830586728067	737289
3	526510	124.844426728067	737430
3	526686	124.872106728067	737571
3	526725	124.885946728067	737712
3	526738	124.899786728067	737853
3	526892	124.913626728067	737994
3	526934	124.927466728067	738135
3	526952	124.941306728067	738276
3	527073	124.955146728067	738417
3	527115	124.968986728067	738558
3	527146	124.982826728067	738699
3	527164	124.996666728067	738840
3	527326	125.010506728067	738981
3	527410	125.024346728067	739122
3	527428	125.038186728067	739263
3	527547	125.052026728067	739404
3	527577	125.065866728067	739545
3	527604	125.079706728067	739686
3	527622	125.093546728067	739827
3	527778	125.107386728067	739968
3	527841	125.121226728067	740109
3	527859	125.135066728067	740250
3	527877	125.148906728067	740391
3	527998	125.162746728067	740532
3	528037	125.176586728067	740673
3	528055	125.190426728067	740814
3	528204	125.204266728067	740955
3	528246	125.218106728067	741096
3	528282	125.231946728067	741237
3	528300	125.245786728067	741378
3	528416	125.259626728067	741519
3	528559	125.273466728067	741660
3	528577	125.283626728067	741801
3	528595	125.287306728067	741942
3	528613	125.297466728067	742083
3	528767	125.301146728067	742224
3	528785	125.311306728067	742365
3	528827	125.314986728067	742506
3	528863	125.325146728067	742647
3	528876	125.328826728067	742788
3	528894	125.338986728067	742929
3	528912	125.342666728067	743070
3	529033	125.352826728067	743211
3	529051	125.356506728067	743352
3	529081	125.366666728067	743493
3	529108	125.370346728067	743634
3	529138	125.380506728067	743775
3	529156	125.384186728067	743916
3	529183	125.394346728067	744057
3	529201	125.398026728067	744198
3	529357	125.408186728067	744339
3	529367	125.411866728067	744480
3	529426	125.422026728067	744621
3	529444	125.425706728067	744762
3	529483	125.435866728067	744903
3	529501	125.439546728067	745044
3	529519	125.449706728067	745185
3	529638	125.453386728067	745326
3	529648	125.463546728067	745467
3	529670	125.467226728067	745608
3	529713	125.477386728067	745749
3	529731	125.481066728067	745890
3	529749	125.491226728067	746031
3	529767	125.494906728067	746172
3	529925	125.505066728067	746313
3	529943	125.508746728067	746454
3	529997	125.518906728067	746595
3	530035	125.522586728067	746736
3	530065	125.532746728067	746877
3	530075	125.53396899642	747018
3	530096	125.536426728067	747159
3	530122	125.546586728067	747300
3	530132	125.54780899642	747441
3	530255	125.550266728067	747582
3	530281	125.560426728067	747723
3	530291	125.56164899642	747864
3	530309	125.564106728067	748005
3	530371	125.574266728067	748146
3	530392	125.577946728067	748287
3	530410	125.588106728067	748428
3	530428	125.591786728067	748569
3	530583	125.605626728067	748710
3	530613	125.615786728067	748851
3	530623	125.619466728067	748992
3	530658	125.629626728067	749133
3	530676	125.633306728067	749274
3	530694	125.643466728067	749415
3	530712	125.647146728067	749556
3	530837	125.657306728067	749697
3	530847	125.660986728067	749838
3	530890	125.671146728067	749979
3	530900	125.674826728067	750120
3	530941	125.684986728067	750261
3	530959	125.688666728067	750402
3	530993	125.698826728067	750543
3	531142	125.702506728067	750684
3	531160	125.712666728067	750825
3	531190	125.716346728067	750966
3	531217	125.726506728067	751107
3	531238	125.740346728067	751248
3	531256	125.744026728067	751389
3	531379	125.754186728067	751530
3	531389	125.757866728067	751671
3	531443	125.768026728067	751812
3	531479	125.771706728067	751953
3	531505	125.781866728067	752094
3	531523	125.785546728067	752235
3	531541	125.795706728067	752376
3	531559	125.799386728067	752517
3	531713	125.809546728067	752658
3	531731	125.813226728067	752799
3	531761	125.823386728067	752940
3	531779	125.827066728067	753081
3	531797	125.837226728067	753222
3	531815	125.840906728067	753363
3	531936	125.851066728067	753504
3	531949	125.854746728067	753645
3	531982	125.864906728067	753786
3	532001	125.868586728067	753927
3	532045	125.878746728067	754068
3	532063	125.882426728067	754209
3	532081	125.892586728067	754350
3	532099	125.896266728067	754491
3	532255	125.906426728067	754632
3	532273	125.910106728067	754773
3	532312	125.920266728067	754914
3	532330	125.923946728067	755055
3	532360	125.934106728067	755196
3	532381	125.937786728067	755337
3	532399	125.947946728067	755478
3	532517	125.951626728067	755619
3	532527	125.961786728067	755760
3	532564	125.965466728067	755901
3	532625	125.975626728067	756042
3	532643	125.979306728067	756183
3	532661	125.989466728067	756324
3	532679	125.993146728067	756465
3	532836	126.006986728067	756606
3	532864	126.020826728067	756747
3	532933	126.034666728067	756888
3	532999	126.048506728067	757029
3	533122	126.061829263933	757170
3	533132	126.062346728067	757311
3	533182	126.075669263933	757452
3	533192	126.076186728067	757593
3	533221	126.089509263933	757734
3	533231	126.090026728067	757875
3	533397	126.103349263933	758016
3	533407	126.103866728067	758157
3	533451	126.117189263933	758298
3	533461	126.117706728067	758439
3	533496	126.131546728067	758580
3	533514	126.145386728067	758721
3	533635	126.159226728067	758862
3	533686	126.173066728067	759003
3	533713	126.186906728067	759144
3	533873	126.200746728067	759285
3	533883	126.214586728067	759426
3	533959	126.228426728067	759567
3	534000	126.242266728067	759708
3	534119	126.256106728067	759849
3	534158	126.269946728067	759990
3	534176	126.283786728067	760131
3	534194	126.297626728067	760272
3	534393	126.325306728067	760413
3	534411	126.339146728067	760554
3	534536	126.352986728067	760695
3	534573	126.366826728067	760836
3	534612	126.380666728067	760977
3	534809	126.422186728067	761118
3	534827	126.436026728067	761259
3	534845	126.449866728067	761400
3	534968	126.463706728067	761541
3	535019	126.477546728067	761682
3	535040	126.491386728067	761823
3	535194	126.505226728067	761964
3	535227	126.519066728067	762105
3	535254	126.532906728067	762246
3	535272	126.546746728067	762387
3	535395	126.560586728067	762528
3	535479	126.588266728067	762669
3	535633	126.602106728067	762810
3	535651	126.615946728067	762951
3	535669	126.629786728067	763092
3	535687	126.643626728067	763233
3	535806	126.657466728067	763374
3	535845	126.671306728067	763515
3	535863	126.685146728067	763656
3	535881	126.698986728067	763797
3	536037	126.712826728067	763938
3	536100	126.726666728067	764079
3	536118	126.740506728067	764220
3	536239	126.754346728067	764361
3	536281	126.768186728067	764502
3	536317	126.782026728067	764643
3	536330	126.795866728067	764784
3	536506	126.823546728067	764925
3	536524	126.837386728067	765066
3	536645	126.851226728067	765207
3	536679	126.865066728067	765348
3	536718	126.878906728067	765489
3	536736	126.892746728067	765630
3	536890	126.906586728067	765771
3	536944	126.920426728067	765912
3	536962	126.934266728067	766053
3	537086	126.961946728067	766194
3	537146	126.975786728067	766335
3	537164	126.989626728067	766476
3	537329	127.003466728067	766617
3	537371	127.017306728067	766758
3	537407	127.031146728067	766899
3	537425	127.044986728067	767040
3	537544	127.058826728067	767181
3	537583	127.072666728067	767322
3	537601	127.086506728067	767463
3	537757	127.100346728067	767604
3	537767	127.114186728067	767745
3	537826	127.128026728067	767886
3	537865	127.141866728067	768027
3	537979	127.155706728067	768168
3	538000	127.169546728067	768309
3	538018	127.183386728067	768450
3	538036	127.197226728067	768591
3	538188	127.211066728067	768732
3	538227	127.224906728067	768873
3	538245	127.238746728067	769014
3	538372	127.252586728067	769155
3	538477	127.280266728067	769296
3	538495	127.294106728067	769437
3	538649	127.307946728067	769578
3	538709	127.321786728067	769719
3	538727	127.335626728067	769860
3	538745	127.349466728067	770001
3	538866	127.363306728067	770142
3	538896	127.377146728067	770283
3	539078	127.404826728067	770424
3	539144	127.418666728067	770565
3	539194	127.432506728067	770706
3	539212	127.436222591762	770847
3	539230	127.446346728067	770988
3	539351	127.460186728067	771129
3	539411	127.474026728067	771270
3	539429	127.487866728067	771411
3	539585	127.501706728067	771552
3	539618	127.515546728067	771693
3	539645	127.529386728067	771834
3	539663	127.543226728067	771975
3	539786	127.557066728067	772116
3	539849	127.570906728067	772257
3	539870	127.584746728067	772398
3	539888	127.598586728067	772539
3	540040	127.612426728067	772680
3	541678	128.002912534095	772821
3	541720	128.016752534095	772962
3	541747	128.030592534095	773103
3	541765	128.044432534095	773244
3	541886	128.058272534095	773385
3	541937	128.072112534095	773526
3	541955	128.085952534095	773667
3	541973	128.099792534095	773808
3	542129	128.113632534095	773949
3	542183	128.127472534095	774090
3	542201	128.141312534095	774231
3	542328	128.155152534095	774372
3	542394	128.168992534095	774513
3	542448	128.182832534095	774654
3	542466	128.196672534095	774795
3	542620	128.210512534095	774936
3	542659	128.224352534095	775077
3	542677	128.238192534095	775218
3	542800	128.252032534095	775359
3	542833	128.265872534095	775500
3	542860	128.279712534095	775641
3	542878	128.293552534095	775782
3	543032	128.307392534095	775923
3	543080	128.321232534095	776064
3	546029	128.983626728067	776205
3	546047	128.997466728067	776346
3	546197	129.011306728067	776487
3	546215	129.025146728067	776628
3	546233	129.038986728067	776769
3	546362	129.052826728067	776910
3	546411	129.066666728067	777051
3	546480	129.080506728067	777192
3	546646	129.108186728067	777333
3	546679	129.122026728067	777474
3	546697	129.135866728067	777615
3	546715	129.149706728067	777756
3	546838	129.163546728067	777897
3	546910	129.177386728067	778038
3	546928	129.191226728067	778179
3	547082	129.205066728067	778320
3	547106	129.218906728067	778461
3	547124	129.232746728067	778602
3	547142	129.246586728067	778743
3	547263	129.260426728067	778884
3	547317	129.274266728067	779025
3	547341	129.288106728067	779166
3	547497	129.301946728067	779307
3	547542	129.329626728067	779448
3	547560	129.343466728067	779589
3	547677	129.357306728067	779730
3	547695	129.371146728067	779871
3	547713	129.384986728067	780012
3	547731	129.398826728067	780153
3	547883	129.412666728067	780294
3	547922	129.426506728067	780435
3	547940	129.440346728067	780576
3	548069	129.454186728067	780717
3	548147	129.468026728067	780858
3	548204	129.481866728067	780999
3	548222	129.495706728067	781140
3	548374	129.509546728067	781281
3	548392	129.523386728067	781422
3	548410	129.537226728067	781563
3	548533	129.551066728067	781704
3	548557	129.564906728067	781845
3	548602	129.578746728067	781986
3	548620	129.592586728067	782127
3	548778	129.606426728067	782268
3	548853	129.620266728067	782409
3	548878	129.634106728067	782550
3	548905	129.647946728067	782691
3	549022	129.661786728067	782832
3	549040	129.675626728067	782973
3	549058	129.689466728067	783114
3	549214	129.703306728067	783255
3	549238	129.717146728067	783396
3	549256	129.730986728067	783537
3	549274	129.744826728067	783678
3	549391	129.758666728067	783819
3	549409	129.772506728067	783960
3	549427	129.786346728067	784101
3	549581	129.800186728067	784242
3	549599	129.814026728067	784383
3	549641	129.827866728067	784524
3	549654	129.841706728067	784665
3	549771	129.855546728067	784806
3	549789	129.869386728067	784947
3	549807	129.883226728067	785088
3	549825	129.897066728067	785229
3	549970	129.910906728067	785370
3	549988	129.924746728067	785511
3	550006	129.938586728067	785652
3	550127	129.952426728067	785793
3	550169	129.966266728067	785934
3	550199	129.993946728067	786075
3	550368	130.007786728067	786216
3	550455	130.021626728067	786357
3	550482	130.035466728067	786498
3	550500	130.049306728067	786639
3	550617	130.063146728067	786780
3	550635	130.076986728067	786921
3	550653	130.090826728067	787062
3	550805	130.104666728067	787203
3	550823	130.118506728067	787344
3	550841	130.132346728067	787485
3	550859	130.146186728067	787626
3	550984	130.160026728067	787767
3	551047	130.173866728067	787908
3	551068	130.187706728067	788049
3	551218	130.201546728067	788190
3	551236	130.215386728067	788331
3	551254	130.229226728067	788472
3	551272	130.243066728067	788613
3	551393	130.256906728067	788754
3	551432	130.270746728067	788895
3	551450	130.284586728067	789036
3	551468	130.298426728067	789177
3	551624	130.312266728067	789318
3	551684	130.326106728067	789459
3	551702	130.339946728067	789600
3	551821	130.353786728067	789741
3	551851	130.367626728067	789882
3	551873	130.381466728067	790023
3	551891	130.395306728067	790164
3	552042	130.409146728067	790305
3	552093	130.422986728067	790446
3	552132	130.436826728067	790587
3	552255	130.450666728067	790728
3	552265	130.464506728067	790869
3	552327	130.478346728067	791010
3	552345	130.492186728067	791151
3	552499	130.506026728067	791292
3	552550	130.519866728067	791433
3	552568	130.533706728067	791574
3	552694	130.561386728067	791715
3	552751	130.575226728067	791856
3	552769	130.589066728067	791997
3	552919	130.602906728067	792138
3	552937	130.616746728067	792279
3	552955	130.630586728067	792420
3	552973	130.644426728067	792561
3	553096	130.658266728067	792702
3	553124	130.672106728067	792843
3	553142	130.685946728067	792984
3	553160	130.699786728067	793125
3	553314	130.713626728067	793266
3	553365	130.727466728067	793407
3	553378	130.741306728067	793548
3	553499	130.755146728067	793689
3	553536	130.768986728067	793830
3	553557	130.782826728067	793971
3	553718	130.810506728067	794112
3	553778	130.824346728067	794253
3	553904	130.852026728067	794394
3	553934	130.865866728067	794535
3	553961	130.879706728067	794676
3	553974	130.893546728067	794817
3	554132	130.907386728067	794958
3	554195	130.921226728067	795099
3	554213	130.935066728067	795240
3	554226	130.948906728067	795381
3	554347	130.962746728067	795522
3	554368	130.976586728067	795663
3	554401	130.990426728067	795804
3	554553	131.004266728067	795945
3	554583	131.018106728067	796086
3	554610	131.031946728067	796227
3	554736	131.059626728067	796368
3	554796	131.073466728067	796509
3	554835	131.087306728067	796650
3	554987	131.101146728067	796791
3	555017	131.114986728067	796932
3	555044	131.128826728067	797073
3	555062	131.142666728067	797214
3	555183	131.156506728067	797355
3	555234	131.170346728067	797496
3	555252	131.184186728067	797637
3	555270	131.198026728067	797778
3	555424	131.211866728067	797919
3	555466	131.225706728067	798060
3	555484	131.239546728067	798201
3	555618	131.267226728067	798342
3	555645	131.281066728067	798483
3	555663	131.294906728067	798624
3	555817	131.308746728067	798765
3	555856	131.322586728067	798906
3	555874	131.336426728067	799047
3	555995	131.350266728067	799188
3	556005	131.364106728067	799329
3	556055	131.377946728067	799470
3	556073	131.391786728067	799611
3	556225	131.405626728067	799752
3	556255	131.419466728067	799893
3	556282	131.433306728067	800034
3	556300	131.447146728067	800175
3	556421	131.460986728067	800316
3	556481	131.474826728067	800457
3	556499	131.488666728067	800598
3	556652	131.516346728067	800739
3	556670	131.530186728067	800880
3	556688	131.544026728067	801021
3	556809	131.557866728067	801162
3	556848	131.571706728067	801303
3	556869	131.585546728067	801444
3	556882	131.599386728067	801585
3	557040	131.613226728067	801726
3	557136	131.627066728067	801867
3	557258	131.654746728067	802008
3	557288	131.668586728067	802149
3	557315	131.682426728067	802290
3	557333	131.696266728067	802431
3	557487	131.710106728067	802572
3	557526	131.723946728067	802713
3	557544	131.737786728067	802854
3	557669	131.751626728067	802995
3	557723	131.765466728067	803136
3	557763	131.779306728067	803277
3	557802	131.793146728067	803418
3	557954	131.806986728067	803559
3	557993	131.820826728067	803700
3	558011	131.834666728067	803841
3	558029	131.848506728067	803982
3	558148	131.862346728067	804123
3	558187	131.876186728067	804264
3	558205	131.890026728067	804405
3	558361	131.903866728067	804546
3	558415	131.917706728067	804687
3	558460	131.931546728067	804828
3	558478	131.945386728067	804969
3	558597	131.959226728067	805110
3	558636	131.973066728067	805251
3	558654	131.986906728067	805392
3	558821	132.000746728067	805533
3	558832	132.014586728067	805674
3	558913	132.028426728067	805815
3	558932	132.042266728067	805956
3	559054	132.056106728067	806097
3	559106	132.069946728067	806238
3	559125	132.083786728067	806379
3	559144	132.097626728067	806520
3	559335	132.125306728067	806661
3	559354	132.139146728067	806802
3	559484	132.152986728067	806943
3	559551	132.166826728067	807084
3	559609	132.180666728067	807225
3	559628	132.194506728067	807366
3	559783	132.208346728067	807507
3	559823	132.222186728067	807648
3	559842	132.236026728067	807789
3	559861	132.249866728067	807930
3	559985	132.263706728067	808071
3	560031	132.277546728067	808212
3	560050	132.291386728067	808353
3	560211	132.305226728067	808494
3	560260	132.319066728067	808635
3	560309	132.332906728067	808776
3	560337	132.346746728067	808917
3	560461	132.360586728067	809058
3	560516	132.374426728067	809199
3	560535	132.388266728067	809340
3	560690	132.402106728067	809481
3	560721	132.415946728067	809622
3	560749	132.429786728067	809763
3	560768	132.443626728067	809904
3	560892	132.457466728067	810045
3	560917	132.471306728067	810186
3	560936	132.485146728067	810327
3	560955	132.498986728067	810468
3	561112	132.512826728067	810609
3	561134	132.526666728067	810750
3	561174	132.540506728067	810891
3	561300	132.554346728067	811032
3	561355	132.568186728067	811173
3	561398	132.582026728067	811314
3	561417	132.595866728067	811455
3	561568	132.609706728067	811596
3	561587	132.623546728067	811737
3	561712	132.651226728067	811878
3	561755	132.665066728067	812019
3	561786	132.678906728067	812160
3	561805	132.692746728067	812301
3	561961	132.706586728067	812442
3	566513	134.083626728067	812583
3	566532	134.097466728067	812724
3	566687	134.111306728067	812865
3	566727	134.125146728067	813006
3	566746	134.138986728067	813147
3	566870	134.152826728067	813288
3	566895	134.166666728067	813429
3	566926	134.180506728067	813570
3	566954	134.194346728067	813711
3	567113	134.208186728067	813852
3	567169	134.222026728067	813993
3	567209	134.235866728067	814134
3	567245	134.249706728067	814275
3	567365	134.263546728067	814416
3	567396	134.277386728067	814557
3	567415	134.291226728067	814698
3	567574	134.305066728067	814839
3	567629	134.318906728067	814980
3	567678	134.332746728067	815121
3	567809	134.360426728067	815262
3	567906	134.374266728067	815403
3	567931	134.388106728067	815544
3	568088	134.401946728067	815685
3	568125	134.429626728067	815826
3	568987	134.633626728067	815967
3	569006	134.647466728067	816108

