version 2
run E-0-20190920-00:38:27-28359
attr configname E
attr datetime 20190920-00:38:27
attr experiment E
attr inifile SimV2.ini
attr iterationvars ""
attr iterationvarsf ""
attr measurement ""
attr network NetworkTormV2
attr processid 28359
attr repetition 0
attr replication #0
attr resultdir results
attr runnumber 0
attr seedset 0
param **.mobility.traceFile "\"paths/A.movements\""
param **.numNodes 4
param **.wirelessIfc.wirelessRange 40m
param **.bluetoothIfc.wirelessRange 40m
param **.application.dataGenerationInterval 1s
param **.application.dataSizeInBytes 10
param **.application.ttl 999999s
param **application.destinationAddr "\"Wf:00:00:00:00:02\""
param **application.destinationBTAddr "\"Bt:00:00:00:00:02\""
param **application.nodesThatGen true
param **application.nodesGenMsg "\"0\""
param **application.startMultipleMsg false
param **application.hopsListSize 50
param **.application.endGeneratingMsg 15s
param **.routing.gateway_list "\"Wf:00:00:00:00:02;5|Wf:00:00:00:00:01;9|Wf:00:00:00:00:00;0|.\""
param **.numNodes 2
param **.application.usedRNG 1
param **.application.dataGenerationInterval 1ms
param **.application.dataSizeInBytes 10
param **.application.ttl 999999s
param **application.destinationAddr "\"Wf:00:00:00:00:02\""
param **application.destinationBTAddr "\"Bt:00:00:00:00:02\""
param **application.nodesThatGen true
param **application.nodesGenMsg "\"0\""
param **application.startMultipleMsg true
param **application.numMultipleMsg 100
param **application.hopsListSize 50
param **.application.endGeneratingMsg 999999s
param **.routingLayer "\"RoutingLayer\""
param **.routing.maximumCacheSize 5000byte
param **.routing.maximumHopCount 25
param **.routing.useTTL false
param **.routing.waitBFsend 0.5
param **.routing.max_age 999999s
param **.routing.gateway_list "\"Wf:00:00:00:00:02;5|Wf:00:00:00:00:03;9|Wf:00:00:00:00:01;0|.\""
param **.routing.actual_gateway "\"Wf:00:00:00:00:02\""
param **.neighboring.antiEntropyInterval 500ms
param **.neighboring.maximumRandomBackoffDuration 1s
param **.neighboring.delayPerDataMsg 0.1
param **neighboring.usedRNG 2
param **.neighboring.GWAddr "\"Wf:00:00:00:00:02\""
param **.neighboring.sendWifiFirst true
param **.neighboring.maxLengthGraph 20
param **.neighboring.max_age 999999s
param **.neighboring.max_absent_time 1s
param **.wirelessIfc.wirelessRange 15m
param **.wirelessIfc.neighbourScanInterval 50ms
param **.wirelessIfc.bandwidthBitRate 100000bps
param **.wirelessIfc.wirelessHeaderSize 32byte
param **.wirelessIfc.minSSI -90
param **.wirelessIfc.limitQueueTime 400ms
param **.wirelessIfc.my_limit_rate 0bps
param **.bluetoothIfc.wirelessRange 15m
param **.bluetoothIfc.neighbourScanInterval 100ms
param **.bluetoothIfc.bandwidthBitRate 100000bps
param **.bluetoothIfc.wirelessHeaderSize 16byte
param **.bluetoothIfc.minSSI -90
param **.mobilityType "\"BonnMotionMobility\""
param **.mobility.traceFile "\"paths/Moves2.movements\""
param **.mobility.is3D false
param **.mobility.nodeId -1

vector 0 NetworkTormV2 neighbourhoodSize:vector ETV
attr source neighbourhoodSize
vector 1 NetworkTormV2 deliveryRatio:vector ETV
attr source sum(totalDataBytesReceived)/sum(totalDataBytesReceivableByAllNodes)
vector 2 NetworkTormV2 dataBytesReceivedSum:vector ETV
attr source sum(dataBytesReceived)
vector 3 NetworkTormV2 totalBytesReceivedSum:vector ETV
attr source sum(totalBytesReceived)
0	13	0.05	1
0	14	0.05	2
0	15	0.05	2
0	16	0.05	1
0	26	0.1	1
0	27	0.1	2
0	28	0.1	2
0	29	0.1	1
0	30	0.1	1
0	31	0.1	2
0	32	0.1	2
0	33	0.1	1
0	51	0.15	1
0	52	0.15	2
0	53	0.15	2
0	54	0.15	1
0	63	0.2	1
0	64	0.2	2
0	65	0.2	2
0	66	0.2	1
0	67	0.2	1
0	68	0.2	2
0	69	0.2	2
0	70	0.2	1
0	87	0.25	1
0	88	0.25	2
0	89	0.25	2
0	90	0.25	1
0	99	0.3	1
0	100	0.3	2
0	101	0.3	2
0	102	0.3	1
0	103	0.3	1
0	104	0.3	2
0	105	0.3	2
0	106	0.3	1
0	123	0.35	1
0	124	0.35	2
0	125	0.35	2
0	126	0.35	1
0	135	0.4	1
0	136	0.4	2
0	137	0.4	2
0	138	0.4	1
0	139	0.4	1
0	140	0.4	2
0	141	0.4	2
0	142	0.4	1
0	159	0.45	1
0	160	0.45	2
0	161	0.45	2
0	162	0.45	1
0	171	0.5	1
0	172	0.5	2
0	173	0.5	2
0	174	0.5	1
0	175	0.5	1
0	176	0.5	2
0	177	0.5	2
0	178	0.5	1
0	195	0.55	1
0	196	0.55	2
0	197	0.55	2
0	198	0.55	1
0	207	0.6	1
0	208	0.6	2
0	209	0.6	2
0	210	0.6	1
0	211	0.6	1
0	212	0.6	2
0	213	0.6	2
0	214	0.6	1
0	231	0.65	1
0	232	0.65	2
0	233	0.65	2
0	234	0.65	1
0	243	0.7	1
0	244	0.7	2
0	245	0.7	2
0	246	0.7	1
0	247	0.7	1
0	248	0.7	2
0	249	0.7	2
0	250	0.7	1
0	267	0.75	1
0	268	0.75	2
0	269	0.75	2
0	270	0.75	1
0	279	0.8	1
0	280	0.8	2
0	281	0.8	2
0	282	0.8	1
0	283	0.8	1
0	284	0.8	2
0	285	0.8	2
0	286	0.8	1
0	303	0.85	1
0	304	0.85	2
0	305	0.85	2
0	306	0.85	1
0	315	0.9	1
0	316	0.9	2
0	317	0.9	2
0	318	0.9	1
0	319	0.9	1
0	320	0.9	2
0	321	0.9	2
0	322	0.9	1
0	339	0.95	1
0	340	0.95	2
0	341	0.95	2
0	342	0.95	1
0	351	1	1
0	352	1	2
0	353	1	2
0	354	1	1
0	355	1	1
0	356	1	2
0	357	1	2
0	358	1	1
0	375	1.05	1
0	376	1.05	2
0	377	1.05	2
0	378	1.05	1
0	388	1.1	1
0	389	1.1	2
0	390	1.1	2
0	391	1.1	1
0	392	1.1	1
0	393	1.1	2
0	394	1.1	2
0	395	1.1	1
0	491	1.15	1
0	492	1.15	2
0	493	1.15	2
0	494	1.15	1
0	503	1.2	1
0	504	1.2	2
0	505	1.2	2
0	506	1.2	1
0	507	1.2	1
0	508	1.2	2
0	509	1.2	2
0	510	1.2	1
0	527	1.25	1
0	528	1.25	2
0	529	1.25	2
0	530	1.25	1
0	539	1.3	1
0	540	1.3	2
0	541	1.3	2
0	542	1.3	1
0	543	1.3	1
0	544	1.3	2
0	545	1.3	2
0	546	1.3	1
0	563	1.35	1
0	564	1.35	2
0	565	1.35	2
0	566	1.35	1
0	575	1.4	1
0	576	1.4	2
0	577	1.4	2
0	578	1.4	1
0	579	1.4	1
0	580	1.4	2
0	581	1.4	2
0	582	1.4	1
0	599	1.45	1
0	600	1.45	2
0	601	1.45	2
0	602	1.45	1
0	611	1.5	1
0	612	1.5	2
0	613	1.5	2
0	614	1.5	1
0	615	1.5	1
0	616	1.5	2
0	617	1.5	2
0	618	1.5	1
0	635	1.55	1
0	636	1.55	2
0	637	1.55	2
0	638	1.55	1
0	647	1.6	1
0	648	1.6	2
0	649	1.6	2
0	650	1.6	1
0	651	1.6	1
0	652	1.6	2
0	653	1.6	2
0	654	1.6	1
0	671	1.65	1
0	672	1.65	2
0	673	1.65	2
0	674	1.65	1
0	775	1.7	1
0	776	1.7	2
0	777	1.7	2
0	778	1.7	1
0	779	1.7	1
0	780	1.7	2
0	781	1.7	2
0	782	1.7	1
0	809	1.75	1
0	810	1.75	2
0	811	1.75	2
0	812	1.75	1
0	821	1.8	1
0	822	1.8	2
0	823	1.8	2
0	824	1.8	1
0	825	1.8	1
0	826	1.8	2
0	827	1.8	2
0	828	1.8	1
0	845	1.85	1
0	846	1.85	2
0	847	1.85	2
0	848	1.85	1
0	857	1.9	1
0	858	1.9	2
0	859	1.9	2
0	860	1.9	1
0	861	1.9	1
0	862	1.9	2
0	863	1.9	2
0	864	1.9	1
0	881	1.95	1
0	882	1.95	2
0	883	1.95	2
0	884	1.95	1
0	893	2	1
0	894	2	2
0	895	2	2
0	896	2	1
0	897	2	1
0	898	2	2
0	899	2	2
0	900	2	1
0	917	2.05	1
0	918	2.05	2
0	919	2.05	2
0	920	2.05	1
0	930	2.1	1
0	931	2.1	2
0	932	2.1	2
0	933	2.1	1
0	934	2.1	1
0	935	2.1	2
0	936	2.1	2
0	937	2.1	1
0	955	2.15	1
0	956	2.15	2
0	957	2.15	2
0	958	2.15	1
0	967	2.2	1
0	968	2.2	2
0	969	2.2	2
0	970	2.2	1
0	971	2.2	1
0	972	2.2	2
0	973	2.2	2
0	974	2.2	1
0	1091	2.25	1
0	1092	2.25	2
0	1093	2.25	2
0	1094	2.25	1
0	1117	2.3	1
0	1118	2.3	2
0	1119	2.3	2
0	1120	2.3	1
0	1121	2.3	1
0	1122	2.3	2
0	1123	2.3	2
0	1124	2.3	1
0	1141	2.35	1
0	1142	2.35	2
0	1143	2.35	2
0	1144	2.35	1
0	1153	2.4	1
0	1154	2.4	2
0	1155	2.4	2
0	1156	2.4	1
0	1157	2.4	1
0	1158	2.4	2
0	1159	2.4	2
0	1160	2.4	1
0	1177	2.45	1
0	1178	2.45	2
0	1179	2.45	2
0	1180	2.45	1
0	1189	2.5	1
0	1190	2.5	2
0	1191	2.5	2
0	1192	2.5	1
0	1193	2.5	1
0	1194	2.5	2
0	1195	2.5	2
0	1196	2.5	1
0	1213	2.55	1
0	1214	2.55	2
0	1215	2.55	2
0	1216	2.55	1
0	1225	2.6	1
0	1226	2.6	2
0	1227	2.6	2
0	1228	2.6	1
0	1229	2.6	1
0	1230	2.6	2
0	1231	2.6	2
0	1232	2.6	1
0	1249	2.65	1
0	1250	2.65	2
0	1251	2.65	2
0	1252	2.65	1
0	1261	2.7	1
0	1262	2.7	2
0	1263	2.7	2
0	1264	2.7	1
0	1265	2.7	1
0	1266	2.7	2
0	1267	2.7	2
0	1268	2.7	1
0	1285	2.75	1
0	1286	2.75	2
0	1287	2.75	2
0	1288	2.75	1
0	1374	2.8	1
0	1375	2.8	2
0	1376	2.8	2
0	1377	2.8	1
0	1378	2.8	1
0	1379	2.8	2
0	1380	2.8	2
0	1381	2.8	1
0	1398	2.85	1
0	1399	2.85	2
0	1400	2.85	2
0	1401	2.85	1
0	1410	2.9	1
0	1411	2.9	2
0	1412	2.9	2
0	1413	2.9	1
0	1414	2.9	1
0	1415	2.9	2
0	1416	2.9	2
0	1417	2.9	1
0	1434	2.95	1
0	1435	2.95	2
0	1436	2.95	2
0	1437	2.95	1
0	1446	3	1
0	1447	3	2
0	1448	3	2
0	1449	3	1
0	1450	3	1
0	1451	3	2
0	1452	3	2
0	1453	3	1
0	1470	3.05	1
0	1471	3.05	2
0	1472	3.05	2
0	1473	3.05	1
0	1483	3.1	1
0	1484	3.1	2
0	1485	3.1	2
0	1486	3.1	1
0	1487	3.1	1
0	1488	3.1	2
0	1489	3.1	2
0	1490	3.1	1
0	1508	3.15	1
0	1509	3.15	2
0	1510	3.15	2
0	1511	3.15	1
0	1520	3.2	1
0	1521	3.2	2
0	1522	3.2	2
0	1523	3.2	1
0	1524	3.2	1
0	1525	3.2	2
0	1526	3.2	2
0	1527	3.2	1
0	1544	3.25	1
0	1545	3.25	2
0	1546	3.25	2
0	1547	3.25	1
0	1556	3.3	1
0	1557	3.3	2
0	1558	3.3	2
0	1559	3.3	1
0	1560	3.3	1
0	1561	3.3	2
0	1562	3.3	2
0	1563	3.3	1
0	1666	3.35	1
0	1667	3.35	2
0	1668	3.35	2
0	1669	3.35	1
0	1678	3.4	1
0	1679	3.4	2
0	1680	3.4	2
0	1681	3.4	1
0	1682	3.4	1
0	1683	3.4	2
0	1684	3.4	2
0	1685	3.4	1
0	1702	3.45	1
0	1703	3.45	2
0	1704	3.45	2
0	1705	3.45	1
0	1727	3.5	1
0	1728	3.5	2
0	1729	3.5	2
0	1730	3.5	1
0	1731	3.5	1
0	1732	3.5	2
0	1733	3.5	2
0	1734	3.5	1
0	1751	3.55	1
0	1752	3.55	2
0	1753	3.55	2
0	1754	3.55	1
0	1763	3.6	1
0	1764	3.6	2
0	1765	3.6	2
0	1766	3.6	1
0	1767	3.6	1
0	1768	3.6	2
0	1769	3.6	2
0	1770	3.6	1
0	1787	3.65	1
0	1788	3.65	2
0	1789	3.65	2
0	1790	3.65	1
0	1799	3.7	1
0	1800	3.7	2
0	1801	3.7	2
0	1802	3.7	1
0	1803	3.7	1
0	1804	3.7	2
0	1805	3.7	2
0	1806	3.7	1
0	1823	3.75	1
0	1824	3.75	2
0	1825	3.75	2
0	1826	3.75	1
0	1835	3.8	1
0	1836	3.8	2
0	1837	3.8	2
0	1838	3.8	1
0	1839	3.8	1
0	1840	3.8	2
0	1841	3.8	2
0	1842	3.8	1
0	1859	3.85	1
0	1860	3.85	2
0	1861	3.85	2
0	1862	3.85	1
0	1960	3.9	1
0	1961	3.9	2
0	1962	3.9	2
0	1963	3.9	1
0	1964	3.9	1
0	1965	3.9	2
0	1966	3.9	2
0	1967	3.9	1
0	1984	3.95	1
0	1985	3.95	2
0	1986	3.95	2
0	1987	3.95	1
0	1996	4	1
0	1997	4	2
0	1998	4	2
0	1999	4	1
0	2000	4	1
0	2001	4	2
0	2002	4	2
0	2003	4	1
0	2023	4.05	1
0	2024	4.05	2
0	2025	4.05	2
0	2026	4.05	1
0	2036	4.1	1
0	2037	4.1	2
0	2038	4.1	2
0	2039	4.1	1
0	2040	4.1	1
0	2041	4.1	2
0	2042	4.1	2
0	2043	4.1	1
0	2061	4.15	1
0	2062	4.15	2
0	2063	4.15	2
0	2064	4.15	1
0	2073	4.2	1
0	2074	4.2	2
0	2075	4.2	2
0	2076	4.2	1
0	2077	4.2	1
0	2078	4.2	2
0	2079	4.2	2
0	2080	4.2	1
0	2097	4.25	1
0	2098	4.25	2
0	2099	4.25	2
0	2100	4.25	1
0	2109	4.3	1
0	2110	4.3	2
0	2111	4.3	2
0	2112	4.3	1
0	2113	4.3	1
0	2114	4.3	2
0	2115	4.3	2
0	2116	4.3	1
0	2133	4.35	1
0	2134	4.35	2
0	2135	4.35	2
0	2136	4.35	1
0	2145	4.4	1
0	2146	4.4	2
0	2147	4.4	2
0	2148	4.4	1
0	2149	4.4	1
0	2150	4.4	2
0	2151	4.4	2
0	2152	4.4	1
0	2221	4.45	1
0	2222	4.45	2
0	2223	4.45	2
0	2224	4.45	1
0	2233	4.5	1
0	2234	4.5	2
0	2235	4.5	2
0	2236	4.5	1
0	2237	4.5	1
0	2238	4.5	2
0	2239	4.5	2
0	2240	4.5	1
0	2257	4.55	1
0	2258	4.55	2
0	2259	4.55	2
0	2260	4.55	1
0	2269	4.6	1
0	2270	4.6	2
0	2271	4.6	2
0	2272	4.6	1
0	2273	4.6	1
0	2274	4.6	2
0	2275	4.6	2
0	2276	4.6	1
0	2293	4.65	1
0	2294	4.65	2
0	2295	4.65	2
0	2296	4.65	1
0	2305	4.7	1
0	2306	4.7	2
0	2307	4.7	2
0	2308	4.7	1
0	2309	4.7	1
0	2310	4.7	2
0	2311	4.7	2
0	2312	4.7	1
0	2329	4.75	1
0	2330	4.75	2
0	2331	4.75	2
0	2332	4.75	1
0	2341	4.8	1
0	2342	4.8	2
0	2343	4.8	2
0	2344	4.8	1
0	2345	4.8	1
0	2346	4.8	2
0	2347	4.8	2
0	2348	4.8	1
0	2365	4.85	1
0	2366	4.85	2
0	2367	4.85	2
0	2368	4.85	1
0	2377	4.9	1
0	2378	4.9	2
0	2379	4.9	2
0	2380	4.9	1
0	2381	4.9	1
0	2382	4.9	2
0	2383	4.9	2
0	2384	4.9	1
0	2401	4.95	1
0	2402	4.95	2
0	2403	4.95	2
0	2404	4.95	1
0	2455	5	1
0	2456	5	2
0	2457	5	2
0	2458	5	1
0	2459	5	1
0	2460	5	2
0	2461	5	2
0	2462	5	1
0	2479	5.05	1
0	2480	5.05	2
0	2481	5.05	2
0	2482	5.05	1
0	2492	5.1	1
0	2493	5.1	2
0	2494	5.1	2
0	2495	5.1	1
0	2496	5.1	1
0	2497	5.1	2
0	2498	5.1	2
0	2499	5.1	1
0	2517	5.15	1
0	2518	5.15	2
0	2519	5.15	2
0	2520	5.15	1
0	2529	5.2	1
0	2530	5.2	2
0	2531	5.2	2
0	2532	5.2	1
0	2533	5.2	1
0	2534	5.2	2
0	2535	5.2	2
0	2536	5.2	1
0	2553	5.25	1
0	2554	5.25	2
0	2555	5.25	2
0	2556	5.25	1
0	2565	5.3	1
0	2566	5.3	2
0	2567	5.3	2
0	2568	5.3	1
0	2569	5.3	1
0	2570	5.3	2
0	2571	5.3	2
0	2572	5.3	1
0	2589	5.35	1
0	2590	5.35	2
0	2591	5.35	2
0	2592	5.35	1
0	2601	5.4	1
0	2602	5.4	2
0	2603	5.4	2
0	2604	5.4	1
0	2605	5.4	1
0	2606	5.4	2
0	2607	5.4	2
0	2608	5.4	1
0	2625	5.45	1
0	2626	5.45	2
0	2627	5.45	2
0	2628	5.45	1
0	2647	5.5	1
0	2648	5.5	2
0	2649	5.5	2
0	2650	5.5	1
0	2651	5.5	1
0	2652	5.5	2
0	2653	5.5	2
0	2654	5.5	1
0	2710	5.55	1
0	2711	5.55	2
0	2712	5.55	2
0	2713	5.55	1
0	2722	5.6	1
0	2723	5.6	2
0	2724	5.6	2
0	2725	5.6	1
0	2726	5.6	1
0	2727	5.6	2
0	2728	5.6	2
0	2729	5.6	1
0	2759	5.65	1
0	2760	5.65	2
0	2761	5.65	2
0	2762	5.65	1
0	2784	5.7	1
0	2785	5.7	2
0	2786	5.7	2
0	2787	5.7	1
0	2788	5.7	1
0	2789	5.7	2
0	2790	5.7	2
0	2791	5.7	1
0	2808	5.75	1
0	2809	5.75	2
0	2810	5.75	2
0	2811	5.75	1
0	2820	5.8	1
0	2821	5.8	2
0	2822	5.8	2
0	2823	5.8	1
0	2824	5.8	1
0	2825	5.8	2
0	2826	5.8	2
0	2827	5.8	1
0	2844	5.85	1
0	2845	5.85	2
0	2846	5.85	2
0	2847	5.85	1
0	2856	5.9	1
0	2857	5.9	2
0	2858	5.9	2
0	2859	5.9	1
0	2860	5.9	1
0	2861	5.9	2
0	2862	5.9	2
0	2863	5.9	1
0	2880	5.95	1
0	2881	5.95	2
0	2882	5.95	2
0	2883	5.95	1
0	2892	6	1
0	2893	6	2
0	2894	6	2
0	2895	6	1
0	2896	6	1
0	2897	6	2
0	2898	6	2
0	2899	6	1
0	2953	6.05	1
0	2954	6.05	2
0	2955	6.05	2
0	2956	6.05	1
0	2995	6.1	1
0	2996	6.1	2
0	2997	6.1	2
0	2998	6.1	1
0	2999	6.1	1
0	3000	6.1	2
0	3001	6.1	2
0	3002	6.1	1
0	3020	6.15	1
0	3021	6.15	2
0	3022	6.15	2
0	3023	6.15	1
0	3045	6.2	1
0	3046	6.2	2
0	3047	6.2	2
0	3048	6.2	1
0	3049	6.2	1
0	3050	6.2	2
0	3051	6.2	2
0	3052	6.2	1
0	3082	6.25	1
0	3083	6.25	2
0	3084	6.25	2
0	3085	6.25	1
0	3094	6.3	1
0	3095	6.3	2
0	3096	6.3	2
0	3097	6.3	1
0	3098	6.3	1
0	3099	6.3	2
0	3100	6.3	2
0	3101	6.3	1
0	3118	6.35	1
0	3119	6.35	2
0	3120	6.35	2
0	3121	6.35	1
0	3130	6.4	1
0	3131	6.4	2
0	3132	6.4	2
0	3133	6.4	1
0	3134	6.4	1
0	3135	6.4	2
0	3136	6.4	2
0	3137	6.4	1
0	3154	6.45	1
0	3155	6.45	2
0	3156	6.45	2
0	3157	6.45	1
0	3166	6.5	1
0	3167	6.5	2
0	3168	6.5	2
0	3169	6.5	1
0	3170	6.5	1
0	3171	6.5	2
0	3172	6.5	2
0	3173	6.5	1
0	3190	6.55	1
0	3191	6.55	2
0	3192	6.55	2
0	3193	6.55	1
0	3205	6.6	1
0	3206	6.6	2
0	3207	6.6	2
0	3208	6.6	1
0	3209	6.6	1
0	3210	6.6	2
0	3211	6.6	2
0	3212	6.6	1
0	3255	6.65	1
0	3256	6.65	2
0	3257	6.65	2
0	3258	6.65	1
0	3267	6.7	1
0	3268	6.7	2
0	3269	6.7	2
0	3270	6.7	1
0	3271	6.7	1
0	3272	6.7	2
0	3273	6.7	2
0	3274	6.7	1
0	3291	6.75	1
0	3292	6.75	2
0	3293	6.75	2
0	3294	6.75	1
0	3329	6.8	1
0	3330	6.8	2
0	3331	6.8	2
0	3332	6.8	1
0	3333	6.8	1
0	3334	6.8	2
0	3335	6.8	2
0	3336	6.8	1
0	3353	6.85	1
0	3354	6.85	2
0	3355	6.85	2
0	3356	6.85	1
0	3365	6.9	1
0	3366	6.9	2
0	3367	6.9	2
0	3368	6.9	1
0	3369	6.9	1
0	3370	6.9	2
0	3371	6.9	2
0	3372	6.9	1
0	3389	6.95	1
0	3390	6.95	2
0	3391	6.95	2
0	3392	6.95	1
0	3401	7	1
0	3402	7	2
0	3403	7	2
0	3404	7	1
0	3405	7	1
0	3406	7	2
0	3407	7	2
0	3408	7	1
0	3425	7.05	1
0	3426	7.05	2
0	3427	7.05	2
0	3428	7.05	1
0	3438	7.1	1
0	3439	7.1	2
0	3440	7.1	2
0	3441	7.1	1
0	3442	7.1	1
0	3443	7.1	2
0	3444	7.1	2
0	3445	7.1	1
0	3463	7.15	1
0	3464	7.15	2
0	3465	7.15	2
0	3466	7.15	1
0	3501	7.2	1
0	3502	7.2	2
0	3503	7.2	2
0	3504	7.2	1
0	3505	7.2	1
0	3506	7.2	2
0	3507	7.2	2
0	3508	7.2	1
0	3525	7.25	1
0	3526	7.25	2
0	3527	7.25	2
0	3528	7.25	1
0	3537	7.3	1
0	3538	7.3	2
0	3539	7.3	2
0	3540	7.3	1
0	3541	7.3	1
0	3542	7.3	2
0	3543	7.3	2
0	3544	7.3	1
0	3587	7.35	1
0	3588	7.35	2
0	3589	7.35	2
0	3590	7.35	1
0	3599	7.4	1
0	3600	7.4	2
0	3601	7.4	2
0	3602	7.4	1
0	3603	7.4	1
0	3604	7.4	2
0	3605	7.4	2
0	3606	7.4	1
0	3623	7.45	1
0	3624	7.45	2
0	3625	7.45	2
0	3626	7.45	1
0	3635	7.5	1
0	3636	7.5	2
0	3637	7.5	2
0	3638	7.5	1
0	3639	7.5	1
0	3640	7.5	2
0	3641	7.5	2
0	3642	7.5	1
0	3659	7.55	1
0	3660	7.55	2
0	3661	7.55	2
0	3662	7.55	1
0	3671	7.6	1
0	3672	7.6	2
0	3673	7.6	2
0	3674	7.6	1
0	3675	7.6	1
0	3676	7.6	2
0	3677	7.6	2
0	3678	7.6	1
0	3695	7.65	1
0	3696	7.65	2
0	3697	7.65	2
0	3698	7.65	1
0	3707	7.7	1
0	3708	7.7	2
0	3709	7.7	2
0	3710	7.7	1
0	3711	7.7	1
0	3712	7.7	2
0	3713	7.7	2
0	3714	7.7	1
0	3754	7.75	1
0	3755	7.75	2
0	3756	7.75	2
0	3757	7.75	1
0	3779	7.8	1
0	3780	7.8	2
0	3781	7.8	2
0	3782	7.8	1
0	3783	7.8	1
0	3784	7.8	2
0	3785	7.8	2
0	3786	7.8	1
0	3803	7.85	1
0	3804	7.85	2
0	3805	7.85	2
0	3806	7.85	1
0	3841	7.9	1
0	3842	7.9	2
0	3843	7.9	2
0	3844	7.9	1
0	3845	7.9	1
0	3846	7.9	2
0	3847	7.9	2
0	3848	7.9	1
0	3902	7.95	1
0	3903	7.95	2
0	3904	7.95	2
0	3905	7.95	1
0	3914	8	1
0	3915	8	2
0	3916	8	2
0	3917	8	1
0	3918	8	1
0	3919	8	2
0	3920	8	2
0	3921	8	1
0	3938	8.05	1
0	3939	8.05	2
0	3940	8.05	2
0	3941	8.05	1
0	3951	8.1	1
0	3952	8.1	2
0	3953	8.1	2
0	3954	8.1	1
0	3955	8.1	1
0	3956	8.1	2
0	3957	8.1	2
0	3958	8.1	1
0	3976	8.15	1
0	3977	8.15	2
0	3978	8.15	2
0	3979	8.15	1
0	3988	8.2	1
0	3989	8.2	2
0	3990	8.2	2
0	3991	8.2	1
0	3992	8.2	1
0	3993	8.2	2
0	3994	8.2	2
0	3995	8.2	1
0	4012	8.25	1
0	4013	8.25	2
0	4014	8.25	2
0	4015	8.25	1
0	4050	8.3	1
0	4051	8.3	2
0	4052	8.3	2
0	4053	8.3	1
0	4054	8.3	1
0	4055	8.3	2
0	4056	8.3	2
0	4057	8.3	1
0	4087	8.35	1
0	4088	8.35	2
0	4089	8.35	2
0	4090	8.35	1
0	4099	8.4	1
0	4100	8.4	2
0	4101	8.4	2
0	4102	8.4	1
0	4103	8.4	1
0	4104	8.4	2
0	4105	8.4	2
0	4106	8.4	1
0	4149	8.45	1
0	4150	8.45	2
0	4151	8.45	2
0	4152	8.45	1
0	4186	8.5	1
0	4187	8.5	2
0	4188	8.5	2
0	4189	8.5	1
0	4190	8.5	1
0	4191	8.5	2
0	4192	8.5	2
0	4193	8.5	1
0	4210	8.55	1
0	4211	8.55	2
0	4212	8.55	2
0	4213	8.55	1
0	4222	8.6	1
0	4223	8.6	2
0	4224	8.6	2
0	4225	8.6	1
0	4226	8.6	1
0	4227	8.6	2
0	4228	8.6	2
0	4229	8.6	1
0	4246	8.65	1
0	4247	8.65	2
0	4248	8.65	2
0	4249	8.65	1
0	4258	8.7	1
0	4259	8.7	2
0	4260	8.7	2
0	4261	8.7	1
0	4262	8.7	1
0	4263	8.7	2
0	4264	8.7	2
0	4265	8.7	1
0	4282	8.75	1
0	4283	8.75	2
0	4284	8.75	2
0	4285	8.75	1
0	4294	8.8	1
0	4295	8.8	2
0	4296	8.8	2
0	4297	8.8	1
0	4298	8.8	1
0	4299	8.8	2
0	4300	8.8	2
0	4301	8.8	1
0	4344	8.85	1
0	4345	8.85	2
0	4346	8.85	2
0	4347	8.85	1
0	4369	8.9	1
0	4370	8.9	2
0	4371	8.9	2
0	4372	8.9	1
0	4373	8.9	1
0	4374	8.9	2
0	4375	8.9	2
0	4376	8.9	1
0	4393	8.95	1
0	4394	8.95	2
0	4395	8.95	2
0	4396	8.95	1
0	4431	9	1
0	4432	9	2
0	4433	9	2
0	4434	9	1
0	4435	9	1
0	4436	9	2
0	4437	9	2
0	4438	9	1
0	4458	9.05	1
0	4459	9.05	2
0	4460	9.05	2
0	4461	9.05	1
0	4471	9.1	1
0	4472	9.1	2
0	4473	9.1	2
0	4474	9.1	1
0	4475	9.1	1
0	4476	9.1	2
0	4477	9.1	2
0	4478	9.1	1
0	4496	9.15	1
0	4497	9.15	2
0	4498	9.15	2
0	4499	9.15	1
0	4508	9.2	1
0	4509	9.2	2
0	4510	9.2	2
0	4511	9.2	1
0	4512	9.2	1
0	4513	9.2	2
0	4514	9.2	2
0	4515	9.2	1
0	4532	9.25	1
0	4533	9.25	2
0	4534	9.25	2
0	4535	9.25	1
0	4544	9.3	1
0	4545	9.3	2
0	4546	9.3	2
0	4547	9.3	1
0	4548	9.3	1
0	4549	9.3	2
0	4550	9.3	2
0	4551	9.3	1
0	4568	9.35	1
0	4569	9.35	2
0	4570	9.35	2
0	4571	9.35	1
0	4606	9.4	1
0	4607	9.4	2
0	4608	9.4	2
0	4609	9.4	1
0	4610	9.4	1
0	4611	9.4	2
0	4612	9.4	2
0	4613	9.4	1
0	4630	9.45	1
0	4631	9.45	2
0	4632	9.45	2
0	4633	9.45	1
0	4642	9.5	1
0	4643	9.5	2
0	4644	9.5	2
0	4645	9.5	1
0	4646	9.5	1
0	4647	9.5	2
0	4648	9.5	2
0	4649	9.5	1
0	4692	9.55	1
0	4693	9.55	2
0	4694	9.55	2
0	4695	9.55	1
0	4704	9.6	1
0	4705	9.6	2
0	4706	9.6	2
0	4707	9.6	1
0	4708	9.6	1
0	4709	9.6	2
0	4710	9.6	2
0	4711	9.6	1
0	4728	9.65	1
0	4729	9.65	2
0	4730	9.65	2
0	4731	9.65	1
0	4740	9.7	1
0	4741	9.7	2
0	4742	9.7	2
0	4743	9.7	1
0	4744	9.7	1
0	4745	9.7	2
0	4746	9.7	2
0	4747	9.7	1
0	4764	9.75	1
0	4765	9.75	2
0	4766	9.75	2
0	4767	9.75	1
0	4776	9.8	1
0	4777	9.8	2
0	4778	9.8	2
0	4779	9.8	1
0	4780	9.8	1
0	4781	9.8	2
0	4782	9.8	2
0	4783	9.8	1
0	4800	9.85	1
0	4801	9.85	2
0	4802	9.85	2
0	4803	9.85	1
0	4812	9.9	1
0	4813	9.9	2
0	4814	9.9	2
0	4815	9.9	1
0	4816	9.9	1
0	4817	9.9	2
0	4818	9.9	2
0	4819	9.9	1
0	4862	9.95	1
0	4863	9.95	2
0	4864	9.95	2
0	4865	9.95	1
0	4874	10	1
0	4875	10	2
0	4876	10	2
0	4877	10	1
0	4878	10	1
0	4879	10	2
0	4880	10	2
0	4881	10	1
0	4898	10.05	1
0	4899	10.05	2
0	4900	10.05	2
0	4901	10.05	1
0	4937	10.1	1
0	4938	10.1	2
0	4939	10.1	2
0	4940	10.1	1
0	4941	10.1	1
0	4942	10.1	2
0	4943	10.1	2
0	4944	10.1	1
0	4962	10.15	1
0	4963	10.15	2
0	4964	10.15	2
0	4965	10.15	1
0	4974	10.2	1
0	4975	10.2	2
0	4976	10.2	2
0	4977	10.2	1
0	4978	10.2	1
0	4979	10.2	2
0	4980	10.2	2
0	4981	10.2	1
0	4998	10.25	1
0	4999	10.25	2
0	5000	10.25	2
0	5001	10.25	1
0	5010	10.3	1
0	5011	10.3	2
0	5012	10.3	2
0	5013	10.3	1
0	5014	10.3	1
0	5015	10.3	2
0	5016	10.3	2
0	5017	10.3	1
0	5034	10.35	1
0	5035	10.35	2
0	5036	10.35	2
0	5037	10.35	1
0	5046	10.4	1
0	5047	10.4	2
0	5048	10.4	2
0	5049	10.4	1
0	5050	10.4	1
0	5051	10.4	2
0	5052	10.4	2
0	5053	10.4	1
0	5070	10.45	1
0	5071	10.45	2
0	5072	10.45	2
0	5073	10.45	1
0	5121	10.5	1
0	5122	10.5	2
0	5123	10.5	2
0	5124	10.5	1
0	5125	10.5	1
0	5126	10.5	2
0	5127	10.5	2
0	5128	10.5	1
0	5145	10.55	1
0	5146	10.55	2
0	5147	10.55	2
0	5148	10.55	1
0	5157	10.6	1
0	5158	10.6	2
0	5159	10.6	2
0	5160	10.6	1
0	5161	10.6	1
0	5162	10.6	2
0	5163	10.6	2
0	5164	10.6	1
0	5217	10.65	1
0	5218	10.65	2
0	5219	10.65	2
0	5220	10.65	1
0	5229	10.7	1
0	5230	10.7	2
0	5231	10.7	2
0	5232	10.7	1
0	5233	10.7	1
0	5234	10.7	2
0	5235	10.7	2
0	5236	10.7	1
0	5253	10.75	1
0	5254	10.75	2
0	5255	10.75	2
0	5256	10.75	1
0	5265	10.8	1
0	5266	10.8	2
0	5267	10.8	2
0	5268	10.8	1
0	5269	10.8	1
0	5270	10.8	2
0	5271	10.8	2
0	5272	10.8	1
0	5289	10.85	1
0	5290	10.85	2
0	5291	10.85	2
0	5292	10.85	1
0	5301	10.9	1
0	5302	10.9	2
0	5303	10.9	2
0	5304	10.9	1
0	5305	10.9	1
0	5306	10.9	2
0	5307	10.9	2
0	5308	10.9	1
0	5325	10.95	1
0	5326	10.95	2
0	5327	10.95	2
0	5328	10.95	1
0	5337	11	1
0	5338	11	2
0	5339	11	2
0	5340	11	1
0	5341	11	1
0	5342	11	2
0	5343	11	2
0	5344	11	1
0	5397	11.05	1
0	5398	11.05	2
0	5399	11.05	2
0	5400	11.05	1
0	5410	11.1	1
0	5411	11.1	2
0	5412	11.1	2
0	5413	11.1	1
0	5414	11.1	1
0	5415	11.1	2
0	5416	11.1	2
0	5417	11.1	1
0	5435	11.15	1
0	5436	11.15	2
0	5437	11.15	2
0	5438	11.15	1
0	5486	11.2	1
0	5487	11.2	2
0	5488	11.2	2
0	5489	11.2	1
0	5490	11.2	1
0	5491	11.2	2
0	5492	11.2	2
0	5493	11.2	1
0	5510	11.25	1
0	5511	11.25	2
0	5512	11.25	2
0	5513	11.25	1
0	5522	11.3	1
0	5523	11.3	2
0	5524	11.3	2
0	5525	11.3	1
0	5526	11.3	1
0	5527	11.3	2
0	5528	11.3	2
0	5529	11.3	1
0	5546	11.35	1
0	5547	11.35	2
0	5548	11.35	2
0	5549	11.35	1
0	5558	11.4	1
0	5559	11.4	2
0	5560	11.4	2
0	5561	11.4	1
0	5562	11.4	1
0	5563	11.4	2
0	5564	11.4	2
0	5565	11.4	1
0	5582	11.45	1
0	5583	11.45	2
0	5584	11.45	2
0	5585	11.45	1
0	5594	11.5	1
0	5595	11.5	2
0	5596	11.5	2
0	5597	11.5	1
0	5598	11.5	1
0	5599	11.5	2
0	5600	11.5	2
0	5601	11.5	1
0	5618	11.55	1
0	5619	11.55	2
0	5620	11.55	2
0	5621	11.55	1
0	5666	11.6	1
0	5667	11.6	2
0	5668	11.6	2
0	5669	11.6	1
0	5670	11.6	1
0	5671	11.6	2
0	5672	11.6	2
0	5673	11.6	1
0	5690	11.65	1
0	5691	11.65	2
0	5692	11.65	2
0	5693	11.65	1
0	5702	11.7	1
0	5703	11.7	2
0	5704	11.7	2
0	5705	11.7	1
0	5706	11.7	1
0	5707	11.7	2
0	5708	11.7	2
0	5709	11.7	1
0	5765	11.75	1
0	5766	11.75	2
0	5767	11.75	2
0	5768	11.75	1
0	5777	11.8	1
0	5778	11.8	2
0	5779	11.8	2
0	5780	11.8	1
0	5781	11.8	1
0	5782	11.8	2
0	5783	11.8	2
0	5784	11.8	1
0	5801	11.85	1
0	5802	11.85	2
0	5803	11.85	2
0	5804	11.85	1
0	5813	11.9	1
0	5814	11.9	2
0	5815	11.9	2
0	5816	11.9	1
0	5817	11.9	1
0	5818	11.9	2
0	5819	11.9	2
0	5820	11.9	1
0	5837	11.95	1
0	5838	11.95	2
0	5839	11.95	2
0	5840	11.95	1
0	5849	12	1
0	5850	12	2
0	5851	12	2
0	5852	12	1
0	5853	12	1
0	5854	12	2
0	5855	12	2
0	5856	12	1
0	5873	12.05	1
0	5874	12.05	2
0	5875	12.05	2
0	5876	12.05	1
0	5886	12.1	1
0	5887	12.1	2
0	5888	12.1	2
0	5889	12.1	1
0	5890	12.1	1
0	5891	12.1	2
0	5892	12.1	2
0	5893	12.1	1
0	5940	12.15	1
0	5941	12.15	2
0	5942	12.15	2
0	5943	12.15	1
0	5952	12.2	1
0	5953	12.2	2
0	5954	12.2	2
0	5955	12.2	1
0	5956	12.2	1
0	5957	12.2	2
0	5958	12.2	2
0	5959	12.2	1
0	5976	12.25	1
0	5977	12.25	2
0	5978	12.25	2
0	5979	12.25	1
0	6014	12.3	1
0	6015	12.3	2
0	6016	12.3	2
0	6017	12.3	1
0	6018	12.3	1
0	6019	12.3	2
0	6020	12.3	2
0	6021	12.3	1
0	6038	12.35	1
0	6039	12.35	2
0	6040	12.35	2
0	6041	12.35	1
0	6050	12.4	1
0	6051	12.4	2
0	6052	12.4	2
0	6053	12.4	1
0	6054	12.4	1
0	6055	12.4	2
0	6056	12.4	2
0	6057	12.4	1
0	6074	12.45	1
0	6075	12.45	2
0	6076	12.45	2
0	6077	12.45	1
0	6086	12.5	1
0	6087	12.5	2
0	6088	12.5	2
0	6089	12.5	1
0	6090	12.5	1
0	6091	12.5	2
0	6092	12.5	2
0	6093	12.5	1
0	6110	12.55	1
0	6111	12.55	2
0	6112	12.55	2
0	6113	12.55	1
0	6122	12.6	1
0	6123	12.6	2
0	6124	12.6	2
0	6125	12.6	1
0	6126	12.6	1
0	6127	12.6	2
0	6128	12.6	2
0	6129	12.6	1
0	6146	12.65	1
0	6147	12.65	2
0	6148	12.65	2
0	6149	12.65	1
0	6184	12.7	1
0	6185	12.7	2
0	6186	12.7	2
0	6187	12.7	1
0	6188	12.7	1
0	6189	12.7	2
0	6190	12.7	2
0	6191	12.7	1
0	6208	12.75	1
0	6209	12.75	2
0	6210	12.75	2
0	6211	12.75	1
0	6220	12.8	1
0	6221	12.8	2
0	6222	12.8	2
0	6223	12.8	1
0	6224	12.8	1
0	6225	12.8	2
0	6226	12.8	2
0	6227	12.8	1
0	6270	12.85	1
0	6271	12.85	2
0	6272	12.85	2
0	6273	12.85	1
0	6282	12.9	1
0	6283	12.9	2
0	6284	12.9	2
0	6285	12.9	1
0	6286	12.9	1
0	6287	12.9	2
0	6288	12.9	2
0	6289	12.9	1
0	6306	12.95	1
0	6307	12.95	2
0	6308	12.95	2
0	6309	12.95	1
0	6318	13	1
0	6319	13	2
0	6320	13	2
0	6321	13	1
0	6322	13	1
0	6323	13	2
0	6324	13	2
0	6325	13	1
0	6342	13.05	1
0	6343	13.05	2
0	6344	13.05	2
0	6345	13.05	1
0	6355	13.1	1
0	6356	13.1	2
0	6357	13.1	2
0	6358	13.1	1
0	6359	13.1	1
0	6360	13.1	2
0	6361	13.1	2
0	6362	13.1	1
0	6380	13.15	1
0	6381	13.15	2
0	6382	13.15	2
0	6383	13.15	1
0	6392	13.2	1
0	6393	13.2	2
0	6394	13.2	2
0	6395	13.2	1
0	6396	13.2	1
0	6397	13.2	2
0	6398	13.2	2
0	6399	13.2	1
0	6442	13.25	1
0	6443	13.25	2
0	6444	13.25	2
0	6445	13.25	1
0	6454	13.3	1
0	6455	13.3	2
0	6456	13.3	2
0	6457	13.3	1
0	6458	13.3	1
0	6459	13.3	2
0	6460	13.3	2
0	6461	13.3	1
0	6491	13.35	1
0	6492	13.35	2
0	6493	13.35	2
0	6494	13.35	1
0	6529	13.4	1
0	6530	13.4	2
0	6531	13.4	2
0	6532	13.4	1
0	6533	13.4	1
0	6534	13.4	2
0	6535	13.4	2
0	6536	13.4	1
0	6553	13.45	1
0	6554	13.45	2
0	6555	13.45	2
0	6556	13.45	1
0	6578	13.5	1
0	6579	13.5	2
0	6580	13.5	2
0	6581	13.5	1
0	6582	13.5	1
0	6583	13.5	2
0	6584	13.5	2
0	6585	13.5	1
0	6602	13.55	1
0	6603	13.55	2
0	6604	13.55	2
0	6605	13.55	1
0	6614	13.6	1
0	6615	13.6	2
0	6616	13.6	2
0	6617	13.6	1
0	6618	13.6	1
0	6619	13.6	2
0	6620	13.6	2
0	6621	13.6	1
0	6638	13.65	1
0	6639	13.65	2
0	6640	13.65	2
0	6641	13.65	1
0	6650	13.7	1
0	6651	13.7	2
0	6652	13.7	2
0	6653	13.7	1
0	6654	13.7	1
0	6655	13.7	2
0	6656	13.7	2
0	6657	13.7	1
0	6674	13.75	1
0	6675	13.75	2
0	6676	13.75	2
0	6677	13.75	1
0	6709	13.8	1
0	6710	13.8	2
0	6711	13.8	2
0	6712	13.8	1
0	6713	13.8	1
0	6714	13.8	2
0	6715	13.8	2
0	6716	13.8	1
0	6733	13.85	1
0	6734	13.85	2
0	6735	13.85	2
0	6736	13.85	1
0	6758	13.9	1
0	6759	13.9	2
0	6760	13.9	2
0	6761	13.9	1
0	6762	13.9	1
0	6763	13.9	2
0	6764	13.9	2
0	6765	13.9	1
0	6808	13.95	1
0	6809	13.95	2
0	6810	13.95	2
0	6811	13.95	1
0	6820	14	1
0	6821	14	2
0	6822	14	2
0	6823	14	1
0	6824	14	1
0	6825	14	2
0	6826	14	2
0	6827	14	1
0	6857	14.05	1
0	6858	14.05	2
0	6859	14.05	2
0	6860	14.05	1
0	6870	14.1	1
0	6871	14.1	2
0	6872	14.1	2
0	6873	14.1	1
0	6874	14.1	1
0	6875	14.1	2
0	6876	14.1	2
0	6877	14.1	1
0	6895	14.15	1
0	6896	14.15	2
0	6897	14.15	2
0	6898	14.15	1
0	6907	14.2	1
0	6908	14.2	2
0	6909	14.2	2
0	6910	14.2	1
0	6911	14.2	1
0	6912	14.2	2
0	6913	14.2	2
0	6914	14.2	1
0	6931	14.25	1
0	6932	14.25	2
0	6933	14.25	2
0	6934	14.25	1
0	6943	14.3	1
0	6944	14.3	2
0	6945	14.3	2
0	6946	14.3	1
0	6947	14.3	1
0	6948	14.3	2
0	6949	14.3	2
0	6950	14.3	1
0	6990	14.35	1
0	6991	14.35	2
0	6992	14.35	2
0	6993	14.35	1
0	7002	14.4	1
0	7003	14.4	2
0	7004	14.4	2
0	7005	14.4	1
0	7006	14.4	1
0	7007	14.4	2
0	7008	14.4	2
0	7009	14.4	1
0	7036	14.45	1
0	7037	14.45	2
0	7038	14.45	2
0	7039	14.45	1
0	7064	14.5	1
0	7065	14.5	2
0	7066	14.5	2
0	7067	14.5	1
0	7068	14.5	1
0	7069	14.5	2
0	7070	14.5	2
0	7071	14.5	1
0	7088	14.55	1
0	7089	14.55	2
0	7090	14.55	2
0	7091	14.55	1
0	7113	14.6	1
0	7114	14.6	2
0	7115	14.6	2
0	7116	14.6	1
0	7117	14.6	1
0	7118	14.6	2
0	7119	14.6	2
0	7120	14.6	1
0	7137	14.65	1
0	7138	14.65	2
0	7139	14.65	2
0	7140	14.65	1
0	7149	14.7	1
0	7150	14.7	2
0	7151	14.7	2
0	7152	14.7	1
0	7153	14.7	1
0	7154	14.7	2
0	7155	14.7	2
0	7156	14.7	1
0	7173	14.75	1
0	7174	14.75	2
0	7175	14.75	2
0	7176	14.75	1
0	7185	14.8	1
0	7186	14.8	2
0	7187	14.8	2
0	7188	14.8	1
0	7189	14.8	1
0	7190	14.8	2
0	7191	14.8	2
0	7192	14.8	1
0	7209	14.85	1
0	7210	14.85	2
0	7211	14.85	2
0	7212	14.85	1
0	7231	14.9	1
0	7232	14.9	2
0	7233	14.9	2
0	7234	14.9	1
0	7235	14.9	1
0	7236	14.9	2
0	7237	14.9	2
0	7238	14.9	1
0	7255	14.95	1
0	7256	14.95	2
0	7257	14.95	2
0	7258	14.95	1
0	7280	15	1
0	7281	15	2
0	7282	15	2
0	7283	15	1
0	7284	15	1
0	7285	15	2
0	7286	15	2
0	7287	15	1
0	7317	15.05	1
0	7318	15.05	2
0	7319	15.05	2
0	7320	15.05	1
0	7330	15.1	1
0	7331	15.1	2
0	7332	15.1	2
0	7333	15.1	1
0	7334	15.1	1
0	7335	15.1	2
0	7336	15.1	2
0	7337	15.1	1
0	7368	15.15	1
0	7369	15.15	2
0	7370	15.15	2
0	7371	15.15	1
0	7380	15.2	1
0	7381	15.2	2
0	7382	15.2	2
0	7383	15.2	1
0	7384	15.2	1
0	7385	15.2	2
0	7386	15.2	2
0	7387	15.2	1
0	7404	15.25	1
0	7405	15.25	2
0	7406	15.25	2
0	7407	15.25	1
0	7416	15.3	1
0	7417	15.3	2
0	7418	15.3	2
0	7419	15.3	1
0	7420	15.3	1
0	7421	15.3	2
0	7422	15.3	2
0	7423	15.3	1
0	7440	15.35	1
0	7441	15.35	2
0	7442	15.35	2
0	7443	15.35	1
0	7452	15.4	1
0	7453	15.4	2
0	7454	15.4	2
0	7455	15.4	1
0	7456	15.4	1
0	7457	15.4	2
0	7458	15.4	2
0	7459	15.4	1
0	7489	15.45	1
0	7490	15.45	2
0	7491	15.45	2
0	7492	15.45	1
0	7501	15.5	1
0	7502	15.5	2
0	7503	15.5	2
0	7504	15.5	1
0	7505	15.5	1
0	7506	15.5	2
0	7507	15.5	2
0	7508	15.5	1
0	7538	15.55	1
0	7539	15.55	2
0	7540	15.55	2
0	7541	15.55	1
0	7563	15.6	1
0	7564	15.6	2
0	7565	15.6	2
0	7566	15.6	1
0	7567	15.6	1
0	7568	15.6	2
0	7569	15.6	2
0	7570	15.6	1
0	7587	15.65	1
0	7588	15.65	2
0	7589	15.65	2
0	7590	15.65	1
0	7612	15.7	1
0	7613	15.7	2
0	7614	15.7	2
0	7615	15.7	1
0	7616	15.7	1
0	7617	15.7	2
0	7618	15.7	2
0	7619	15.7	1
0	7636	15.75	1
0	7637	15.75	2
0	7638	15.75	2
0	7639	15.75	1
0	7648	15.8	1
0	7649	15.8	2
0	7650	15.8	2
0	7651	15.8	1
0	7652	15.8	1
0	7653	15.8	2
0	7654	15.8	2
0	7655	15.8	1
0	7672	15.85	1
0	7673	15.85	2
0	7674	15.85	2
0	7675	15.85	1
0	7684	15.9	1
0	7685	15.9	2
0	7686	15.9	2
0	7687	15.9	1
0	7688	15.9	1
0	7689	15.9	2
0	7690	15.9	2
0	7691	15.9	1
0	7721	15.95	1
0	7722	15.95	2
0	7723	15.95	2
0	7724	15.95	1
0	7746	16	1
0	7747	16	2
0	7748	16	2
0	7749	16	1
0	7750	16	1
0	7751	16	2
0	7752	16	2
0	7753	16	1
0	7770	16.05	1
0	7771	16.05	2
0	7772	16.05	2
0	7773	16.05	1
0	7808	16.1	1
0	7809	16.1	2
0	7810	16.1	2
0	7811	16.1	1
0	7812	16.1	1
0	7813	16.1	2
0	7814	16.1	2
0	7815	16.1	1
0	7845	16.15	1
0	7846	16.15	2
0	7847	16.15	2
0	7848	16.15	1
0	7857	16.2	1
0	7858	16.2	2
0	7859	16.2	2
0	7860	16.2	1
0	7861	16.2	1
0	7862	16.2	2
0	7863	16.2	2
0	7864	16.2	1
0	7894	16.25	1
0	7895	16.25	2
0	7896	16.25	2
0	7897	16.25	1
0	7906	16.3	1
0	7907	16.3	2
0	7908	16.3	2
0	7909	16.3	1
0	7910	16.3	1
0	7911	16.3	2
0	7912	16.3	2
0	7913	16.3	1
0	7930	16.35	1
0	7931	16.35	2
0	7932	16.35	2
0	7933	16.35	1
0	7942	16.4	1
0	7943	16.4	2
0	7944	16.4	2
0	7945	16.4	1
0	7946	16.4	1
0	7947	16.4	2
0	7948	16.4	2
0	7949	16.4	1
0	7966	16.45	1
0	7967	16.45	2
0	7968	16.45	2
0	7969	16.45	1
0	7991	16.5	1
0	7992	16.5	2
0	7993	16.5	2
0	7994	16.5	1
0	7995	16.5	1
0	7996	16.5	2
0	7997	16.5	2
0	7998	16.5	1
0	8028	16.55	1
0	8029	16.55	2
0	8030	16.55	2
0	8031	16.55	1
0	8040	16.6	1
0	8041	16.6	2
0	8042	16.6	2
0	8043	16.6	1
0	8044	16.6	1
0	8045	16.6	2
0	8046	16.6	2
0	8047	16.6	1
0	8080	16.65	1
0	8081	16.65	2
0	8082	16.65	2
0	8083	16.65	1
0	8105	16.7	1
0	8106	16.7	2
0	8107	16.7	2
0	8108	16.7	1
0	8109	16.7	1
0	8110	16.7	2
0	8111	16.7	2
0	8112	16.7	1
0	8129	16.75	1
0	8130	16.75	2
0	8131	16.75	2
0	8132	16.75	1
0	8154	16.8	1
0	8155	16.8	2
0	8156	16.8	2
0	8157	16.8	1
0	8158	16.8	1
0	8159	16.8	2
0	8160	16.8	2
0	8161	16.8	1
0	8178	16.85	1
0	8179	16.85	2
0	8180	16.85	2
0	8181	16.85	1
0	8190	16.9	1
0	8191	16.9	2
0	8192	16.9	2
0	8193	16.9	1
0	8194	16.9	1
0	8195	16.9	2
0	8196	16.9	2
0	8197	16.9	1
0	8214	16.95	1
0	8215	16.95	2
0	8216	16.95	2
0	8217	16.95	1
0	8226	17	1
0	8227	17	2
0	8228	17	2
0	8229	17	1
0	8230	17	1
0	8231	17	2
0	8232	17	2
0	8233	17	1
0	8250	17.05	1
0	8251	17.05	2
0	8252	17.05	2
0	8253	17.05	1
0	8275	17.1	1
0	8276	17.1	2
0	8277	17.1	2
0	8278	17.1	1
0	8279	17.1	1
0	8280	17.1	2
0	8281	17.1	2
0	8282	17.1	1
0	8299	17.15	1
0	8300	17.15	2
0	8301	17.15	2
0	8302	17.15	1
0	8324	17.2	1
0	8325	17.2	2
0	8326	17.2	2
0	8327	17.2	1
0	8328	17.2	1
0	8329	17.2	2
0	8330	17.2	2
0	8331	17.2	1
0	8361	17.25	1
0	8362	17.25	2
0	8363	17.25	2
0	8364	17.25	1
0	8373	17.3	1
0	8374	17.3	2
0	8375	17.3	2
0	8376	17.3	1
0	8377	17.3	1
0	8378	17.3	2
0	8379	17.3	2
0	8380	17.3	1
0	8410	17.35	1
0	8411	17.35	2
0	8412	17.35	2
0	8413	17.35	1
0	8422	17.4	1
0	8423	17.4	2
0	8424	17.4	2
0	8425	17.4	1
0	8426	17.4	1
0	8427	17.4	2
0	8428	17.4	2
0	8429	17.4	1
0	8446	17.45	1
0	8447	17.45	2
0	8448	17.45	2
0	8449	17.45	1
0	8458	17.5	1
0	8459	17.5	2
0	8460	17.5	2
0	8461	17.5	1
0	8462	17.5	1
0	8463	17.5	2
0	8464	17.5	2
0	8465	17.5	1
0	8482	17.55	1
0	8483	17.55	2
0	8484	17.55	2
0	8485	17.55	1
0	8494	17.6	1
0	8495	17.6	2
0	8496	17.6	2
0	8497	17.6	1
0	8498	17.6	1
0	8499	17.6	2
0	8500	17.6	2
0	8501	17.6	1
0	8531	17.65	1
0	8532	17.65	2
0	8533	17.65	2
0	8534	17.65	1
0	8543	17.7	1
0	8544	17.7	2
0	8545	17.7	2
0	8546	17.7	1
0	8547	17.7	1
0	8548	17.7	2
0	8549	17.7	2
0	8550	17.7	1
0	8577	17.75	1
0	8578	17.75	2
0	8579	17.75	2
0	8580	17.75	1
0	8602	17.8	1
0	8603	17.8	2
0	8604	17.8	2
0	8605	17.8	1
0	8606	17.8	1
0	8607	17.8	2
0	8608	17.8	2
0	8609	17.8	1
0	8626	17.85	1
0	8627	17.85	2
0	8628	17.85	2
0	8629	17.85	1
0	8651	17.9	1
0	8652	17.9	2
0	8653	17.9	2
0	8654	17.9	1
0	8655	17.9	1
0	8656	17.9	2
0	8657	17.9	2
0	8658	17.9	1
0	8675	17.95	1
0	8676	17.95	2
0	8677	17.95	2
0	8678	17.95	1
0	8687	18	1
0	8688	18	2
0	8689	18	2
0	8690	18	1
0	8691	18	1
0	8692	18	2
0	8693	18	2
0	8694	18	1
0	8711	18.05	1
0	8712	18.05	2
0	8713	18.05	2
0	8714	18.05	1
0	8736	18.1	1
0	8737	18.1	2
0	8738	18.1	2
0	8739	18.1	1
0	8740	18.1	1
0	8741	18.1	2
0	8742	18.1	2
0	8743	18.1	1
0	8760	18.15	1
0	8761	18.15	2
0	8762	18.15	2
0	8763	18.15	1
0	8785	18.2	1
0	8786	18.2	2
0	8787	18.2	2
0	8788	18.2	1
0	8789	18.2	1
0	8790	18.2	2
0	8791	18.2	2
0	8792	18.2	1
0	8822	18.25	1
0	8823	18.25	2
0	8824	18.25	2
0	8825	18.25	1
0	8837	18.3	1
0	8838	18.3	2
0	8839	18.3	2
0	8840	18.3	1
0	8841	18.3	1
0	8842	18.3	2
0	8843	18.3	2
0	8844	18.3	1
0	8874	18.35	1
0	8875	18.35	2
0	8876	18.35	2
0	8877	18.35	1
0	8886	18.4	1
0	8887	18.4	2
0	8888	18.4	2
0	8889	18.4	1
0	8890	18.4	1
0	8891	18.4	2
0	8892	18.4	2
0	8893	18.4	1
0	8910	18.45	1
0	8911	18.45	2
0	8912	18.45	2
0	8913	18.45	1
0	8922	18.5	1
0	8923	18.5	2
0	8924	18.5	2
0	8925	18.5	1
0	8926	18.5	1
0	8927	18.5	2
0	8928	18.5	2
0	8929	18.5	1
0	8946	18.55	1
0	8947	18.55	2
0	8948	18.55	2
0	8949	18.55	1
0	8958	18.6	1
0	8959	18.6	2
0	8960	18.6	2
0	8961	18.6	1
0	8962	18.6	1
0	8963	18.6	2
0	8964	18.6	2
0	8965	18.6	1
0	8985	18.65	1
0	8986	18.65	2
0	8987	18.65	2
0	8988	18.65	1
0	8997	18.7	1
0	8998	18.7	2
0	8999	18.7	2
0	9000	18.7	1
0	9001	18.7	1
0	9002	18.7	2
0	9003	18.7	2
0	9004	18.7	1
0	9031	18.75	1
0	9032	18.75	2
0	9033	18.75	2
0	9034	18.75	1
0	9043	18.8	1
0	9044	18.8	2
0	9045	18.8	2
0	9046	18.8	1
0	9047	18.8	1
0	9048	18.8	2
0	9049	18.8	2
0	9050	18.8	1
0	9067	18.85	1
0	9068	18.85	2
0	9069	18.85	2
0	9070	18.85	1
0	9092	18.9	1
0	9093	18.9	2
0	9094	18.9	2
0	9095	18.9	1
0	9096	18.9	1
0	9097	18.9	2
0	9098	18.9	2
0	9099	18.9	1
0	9116	18.95	1
0	9117	18.95	2
0	9118	18.95	2
0	9119	18.95	1
0	9128	19	1
0	9129	19	2
0	9130	19	2
0	9131	19	1
0	9132	19	1
0	9133	19	2
0	9134	19	2
0	9135	19	1
0	9152	19.05	1
0	9153	19.05	2
0	9154	19.05	2
0	9155	19.05	1
0	9164	19.1	1
0	9165	19.1	2
0	9166	19.1	2
0	9167	19.1	1
0	9168	19.1	1
0	9169	19.1	2
0	9170	19.1	2
0	9171	19.1	1
0	9188	19.15	1
0	9189	19.15	2
0	9190	19.15	2
0	9191	19.15	1
0	9200	19.2	1
0	9201	19.2	2
0	9202	19.2	2
0	9203	19.2	1
0	9204	19.2	1
0	9205	19.2	2
0	9206	19.2	2
0	9207	19.2	1
0	9224	19.25	1
0	9225	19.25	2
0	9226	19.25	2
0	9227	19.25	1
0	9249	19.3	1
0	9250	19.3	2
0	9251	19.3	2
0	9252	19.3	1
0	9253	19.3	1
0	9254	19.3	2
0	9255	19.3	2
0	9256	19.3	1
0	9273	19.35	1
0	9274	19.35	2
0	9275	19.35	2
0	9276	19.35	1
0	9285	19.4	1
0	9286	19.4	2
0	9287	19.4	2
0	9288	19.4	1
0	9289	19.4	1
0	9290	19.4	2
0	9291	19.4	2
0	9292	19.4	1
0	9322	19.45	1
0	9323	19.45	2
0	9324	19.45	2
0	9325	19.45	1
0	9347	19.5	1
0	9348	19.5	2
0	9349	19.5	2
0	9350	19.5	1
0	9351	19.5	1
0	9352	19.5	2
0	9353	19.5	2
0	9354	19.5	1
0	9371	19.55	1
0	9372	19.55	2
0	9373	19.55	2
0	9374	19.55	1
0	9383	19.6	1
0	9384	19.6	2
0	9385	19.6	2
0	9386	19.6	1
0	9387	19.6	1
0	9388	19.6	2
0	9389	19.6	2
0	9390	19.6	1
0	9420	19.65	1
0	9421	19.65	2
0	9422	19.65	2
0	9423	19.65	1
0	9432	19.7	1
0	9433	19.7	2
0	9434	19.7	2
0	9435	19.7	1
0	9436	19.7	1
0	9437	19.7	2
0	9438	19.7	2
0	9439	19.7	1
0	9456	19.75	1
0	9457	19.75	2
0	9458	19.75	2
0	9459	19.75	1
0	9468	19.8	1
0	9469	19.8	2
0	9470	19.8	2
0	9471	19.8	1
0	9472	19.8	1
0	9473	19.8	2
0	9474	19.8	2
0	9475	19.8	1
0	9518	19.85	1
0	9519	19.85	2
0	9520	19.85	2
0	9521	19.85	1
0	9530	19.9	1
0	9531	19.9	2
0	9532	19.9	2
0	9533	19.9	1
0	9534	19.9	1
0	9535	19.9	2
0	9536	19.9	2
0	9537	19.9	1
0	9554	19.95	1
0	9555	19.95	2
0	9556	19.95	2
0	9557	19.95	1
0	9592	20	1
0	9593	20	2
0	9594	20	2
0	9595	20	1
0	9596	20	1
0	9597	20	2
0	9598	20	2
0	9599	20	1
1	25	0.1	-nan
1	387	1.1	-nan
1	929	2.1	-nan
1	1482	3.1	-nan
1	2035	4.1	-nan
1	2491	5.1	-nan
1	2994	6.1	-nan
1	3437	7.1	-nan
1	3950	8.1	-nan
1	4470	9.1	-nan
1	4936	10.1	-nan
1	5409	11.1	-nan
1	5885	12.1	-nan
1	6354	13.1	-nan
1	6869	14.1	-nan
1	7329	15.1	-nan
2	768	1.688032534095	141
2	802	1.701872534095	282
2	1078	2.238032534095	423
2	1084	2.242672534095	564
2	1106	2.256512534095	705
2	1370	2.792672534095	846
2	1648	3.328453385287	987
2	1658	3.338032534095	1128
2	1939	3.878453385287	1269
2	1949	3.888032534095	1410
2	2936	6.028453385287	1551
2	2946	6.042293385287	1692
2	3885	7.928453385287	1833
2	3895	7.942293385287	1974
2	4179	8.478453385287	2115
3	768	1.688032534095	141
3	802	1.701872534095	282
3	1078	2.238032534095	423
3	1084	2.242672534095	564
3	1106	2.256512534095	705
3	1370	2.792672534095	846
3	1648	3.328453385287	987
3	1658	3.338032534095	1128
3	1939	3.878453385287	1269
3	1949	3.888032534095	1410
3	2936	6.028453385287	1551
3	2946	6.042293385287	1692
3	3885	7.928453385287	1833
3	3895	7.942293385287	1974
3	4179	8.478453385287	2115

