version 2
run Egw-0-20191007-14:58:10-11761
attr configname Egw
attr datetime 20191007-14:58:10
attr experiment Egw
attr inifile SimV2.ini
attr iterationvars ""
attr iterationvarsf ""
attr measurement ""
attr network NetworkTormV2
attr processid 11761
attr repetition 0
attr replication #0
attr resultdir results
attr runnumber 0
attr seedset 0
param **.mobility.traceFile "\"paths/Egw.movements\""
param **.numNodes 4
param **.application.usedRNG 1
param **.application.dataGenerationInterval 1s
param **.application.dataSizeInBytes 10
param **.application.ttl 999999s
param **application.nodesThatGen true
param **application.nodesGenMsg "\"0,1,2,3\""
param **application.startMultipleMsg false
param **application.numMultipleMsg 100
param **application.hopsListSize 50
param **.application.endGeneratingMsg 99999s
param **.routingLayer "\"RoutingLqeGw\""
param **.routing.maximumCacheSize 5000byte
param **.routing.maximumHopCount 25
param **.routing.waitBFsend 0.5
param **.routing.max_age 999999s
param **.routing.gateway_list "\"\""
param **.routing.actual_gateway "\"\""
param **.routing.gwCheckPeriod 5s
param **.routing.useTTL false
param **.routing.kill_pcktP 5s
param **.numNodes 2
param **.application.usedRNG 1
param **.application.dataGenerationInterval 1ms
param **.application.dataSizeInBytes 10
param **.application.ttl 999999s
param **application.destinationAddr "\"Wf:00:00:00:00:02\""
param **application.destinationBTAddr "\"Bt:00:00:00:00:02\""
param **application.nodesThatGen true
param **application.nodesGenMsg "\"0\""
param **application.startMultipleMsg true
param **application.numMultipleMsg 100
param **application.hopsListSize 50
param **.application.endGeneratingMsg 999999s
param **.routingLayer "\"RoutingLqeGw\""
param **.routing.maximumCacheSize 5000byte
param **.routing.maximumHopCount 25
param **.routing.useTTL false
param **.routing.waitBFsend 0.5
param **.routing.max_age 999999s
param **.routing.gateway_list "\"Wf:00:00:00:00:02;0|.\""
param **.routing.actual_gateway "\"Wf:00:00:00:00:02\""
param **.routing.gwCheckPeriod 5s
param **.routing.kill_pcktP 10s
param **.neighboring.antiEntropyInterval 500ms
param **.neighboring.maximumRandomBackoffDuration 1s
param **.neighboring.delayPerDataMsg 0.1
param **neighboring.usedRNG 2
param **.neighboring.GWAddr "\"Wf:00:00:00:00:02\""
param **.neighboring.sendWifiFirst true
param **.neighboring.maxLengthGraph 50
param **.neighboring.max_age 999999s
param **.neighboring.max_absent_time 1s
param **.wirelessIfc.wirelessRange 40m
param **.wirelessIfc.neighbourScanInterval 50ms
param **.wirelessIfc.bandwidthBitRate 100000bps
param **.wirelessIfc.wirelessHeaderSize 32byte
param **.wirelessIfc.minSSI -90
param **.wirelessIfc.limitQueueTime 400ms
param **.wirelessIfc.my_limit_rate 0bps
param **.bluetoothIfc.wirelessRange 40m
param **.bluetoothIfc.neighbourScanInterval 100ms
param **.bluetoothIfc.bandwidthBitRate 100000bps
param **.bluetoothIfc.wirelessHeaderSize 16byte
param **.bluetoothIfc.minSSI -90
param **.mobilityType "\"BonnMotionMobility\""
param **.mobility.traceFile "\"paths/Moves2.movements\""
param **.mobility.is3D false
param **.mobility.nodeId -1

vector 0 NetworkTormV2 neighbourhoodSize:vector ETV
attr source neighbourhoodSize
vector 1 NetworkTormV2 deliveryRatio:vector ETV
attr source sum(totalDataBytesReceived)/sum(totalDataBytesReceivableByAllNodes)
vector 2 NetworkTormV2 dataBytesReceivedSum:vector ETV
attr source sum(dataBytesReceived)
vector 3 NetworkTormV2 totalBytesReceivedSum:vector ETV
attr source sum(totalBytesReceived)
0	13	0.05	1
0	14	0.05	2
0	15	0.05	1
0	16	0.05	0
0	30	0.1	1
0	32	0.1	2
0	34	0.1	1
0	36	0.1	0
0	38	0.1	1
0	39	0.1	2
0	40	0.1	1
0	41	0.1	0
0	64	0.15	1
0	65	0.15	2
0	66	0.15	1
0	67	0.15	0
0	80	0.2	1
0	81	0.2	2
0	82	0.2	1
0	83	0.2	0
0	85	0.2	1
0	86	0.2	2
0	87	0.2	1
0	88	0.2	0
0	107	0.25	1
0	108	0.25	2
0	109	0.25	1
0	110	0.25	0
0	123	0.3	1
0	124	0.3	2
0	125	0.3	1
0	126	0.3	0
0	128	0.3	1
0	129	0.3	2
0	130	0.3	1
0	131	0.3	0
0	150	0.35	1
0	151	0.35	2
0	152	0.35	1
0	153	0.35	0
0	166	0.4	1
0	167	0.4	2
0	168	0.4	1
0	169	0.4	0
0	171	0.4	1
0	172	0.4	2
0	173	0.4	1
0	174	0.4	0
0	193	0.45	1
0	194	0.45	2
0	195	0.45	1
0	196	0.45	0
0	209	0.5	1
0	210	0.5	2
0	211	0.5	1
0	212	0.5	0
0	214	0.5	1
0	215	0.5	2
0	216	0.5	1
0	217	0.5	0
0	236	0.55	1
0	237	0.55	2
0	238	0.55	1
0	239	0.55	0
0	252	0.6	1
0	253	0.6	2
0	254	0.6	1
0	255	0.6	0
0	257	0.6	1
0	258	0.6	2
0	259	0.6	1
0	260	0.6	0
0	279	0.65	1
0	280	0.65	2
0	281	0.65	1
0	282	0.65	0
0	295	0.7	1
0	296	0.7	2
0	297	0.7	1
0	298	0.7	0
0	300	0.7	1
0	301	0.7	2
0	302	0.7	1
0	303	0.7	0
0	322	0.75	1
0	323	0.75	2
0	324	0.75	1
0	325	0.75	0
0	338	0.8	1
0	339	0.8	2
0	340	0.8	1
0	341	0.8	0
0	343	0.8	1
0	344	0.8	2
0	345	0.8	1
0	346	0.8	0
0	365	0.85	1
0	366	0.85	2
0	367	0.85	1
0	368	0.85	0
0	381	0.9	1
0	382	0.9	2
0	383	0.9	1
0	384	0.9	0
0	386	0.9	1
0	387	0.9	2
0	388	0.9	1
0	389	0.9	0
0	408	0.95	1
0	409	0.95	2
0	410	0.95	1
0	411	0.95	0
0	424	1	1
0	425	1	2
0	426	1	1
0	427	1	0
0	429	1	1
0	430	1	2
0	431	1	1
0	432	1	0
0	451	1.05	1
0	452	1.05	2
0	453	1.05	1
0	454	1.05	0
0	471	1.1	1
0	472	1.1	2
0	473	1.1	1
0	474	1.1	0
0	476	1.1	1
0	477	1.1	2
0	478	1.1	1
0	479	1.1	0
0	574	1.15	1
0	575	1.15	2
0	576	1.15	1
0	577	1.15	0
0	590	1.2	1
0	591	1.2	2
0	592	1.2	1
0	593	1.2	0
0	595	1.2	1
0	596	1.2	2
0	597	1.2	1
0	598	1.2	0
0	617	1.25	1
0	618	1.25	2
0	619	1.25	1
0	620	1.25	0
0	633	1.3	1
0	634	1.3	2
0	635	1.3	1
0	636	1.3	0
0	638	1.3	1
0	639	1.3	2
0	640	1.3	1
0	641	1.3	0
0	660	1.35	1
0	661	1.35	2
0	662	1.35	1
0	663	1.35	0
0	676	1.4	1
0	677	1.4	2
0	678	1.4	1
0	679	1.4	0
0	681	1.4	1
0	682	1.4	2
0	683	1.4	1
0	684	1.4	0
0	703	1.45	1
0	704	1.45	2
0	705	1.45	1
0	706	1.45	0
0	719	1.5	1
0	720	1.5	2
0	721	1.5	1
0	722	1.5	0
0	724	1.5	1
0	725	1.5	2
0	726	1.5	1
0	727	1.5	0
0	746	1.55	1
0	747	1.55	2
0	748	1.55	1
0	749	1.55	0
0	762	1.6	1
0	763	1.6	2
0	764	1.6	1
0	765	1.6	0
0	767	1.6	1
0	768	1.6	2
0	769	1.6	1
0	770	1.6	0
0	789	1.65	1
0	790	1.65	2
0	791	1.65	1
0	792	1.65	0
0	877	1.7	1
0	878	1.7	2
0	879	1.7	1
0	880	1.7	0
0	882	1.7	1
0	883	1.7	2
0	884	1.7	1
0	885	1.7	0
0	904	1.75	1
0	905	1.75	2
0	906	1.75	1
0	907	1.75	0
0	920	1.8	1
0	921	1.8	2
0	922	1.8	1
0	923	1.8	0
0	925	1.8	1
0	926	1.8	2
0	927	1.8	1
0	928	1.8	0
0	947	1.85	1
0	948	1.85	2
0	949	1.85	1
0	950	1.85	0
0	963	1.9	1
0	964	1.9	2
0	965	1.9	1
0	966	1.9	0
0	968	1.9	1
0	969	1.9	2
0	970	1.9	1
0	971	1.9	0
0	990	1.95	1
0	991	1.95	2
0	992	1.95	1
0	993	1.95	0
0	1006	2	1
0	1007	2	2
0	1008	2	1
0	1009	2	0
0	1011	2	1
0	1012	2	2
0	1013	2	1
0	1014	2	0
0	1033	2.05	1
0	1034	2.05	2
0	1035	2.05	1
0	1036	2.05	0
0	1053	2.1	1
0	1054	2.1	2
0	1055	2.1	1
0	1056	2.1	0
0	1058	2.1	1
0	1059	2.1	2
0	1060	2.1	1
0	1061	2.1	0
0	1084	2.15	1
0	1085	2.15	2
0	1086	2.15	1
0	1087	2.15	0
0	1100	2.2	1
0	1101	2.2	2
0	1102	2.2	1
0	1103	2.2	0
0	1105	2.2	1
0	1106	2.2	2
0	1107	2.2	1
0	1108	2.2	0
0	1199	2.25	1
0	1200	2.25	2
0	1201	2.25	1
0	1202	2.25	0
0	1215	2.3	1
0	1216	2.3	2
0	1217	2.3	1
0	1218	2.3	0
0	1220	2.3	1
0	1221	2.3	2
0	1222	2.3	1
0	1223	2.3	0
0	1242	2.35	1
0	1243	2.35	2
0	1244	2.35	1
0	1245	2.35	0
0	1258	2.4	1
0	1259	2.4	2
0	1260	2.4	1
0	1261	2.4	0
0	1263	2.4	1
0	1264	2.4	2
0	1265	2.4	1
0	1266	2.4	0
0	1285	2.45	1
0	1286	2.45	2
0	1287	2.45	1
0	1288	2.45	0
0	1301	2.5	1
0	1302	2.5	2
0	1303	2.5	1
0	1304	2.5	0
0	1306	2.5	1
0	1307	2.5	2
0	1308	2.5	1
0	1309	2.5	0
0	1328	2.55	1
0	1329	2.55	2
0	1330	2.55	1
0	1331	2.55	0
0	1344	2.6	1
0	1345	2.6	2
0	1346	2.6	1
0	1347	2.6	0
0	1349	2.6	1
0	1350	2.6	2
0	1351	2.6	1
0	1352	2.6	0
0	1371	2.65	1
0	1372	2.65	2
0	1373	2.65	1
0	1374	2.65	0
0	1387	2.7	1
0	1388	2.7	2
0	1389	2.7	1
0	1390	2.7	0
0	1392	2.7	1
0	1393	2.7	2
0	1394	2.7	1
0	1395	2.7	0
0	1414	2.75	1
0	1415	2.75	2
0	1416	2.75	1
0	1417	2.75	0
0	1502	2.8	1
0	1503	2.8	2
0	1504	2.8	1
0	1505	2.8	0
0	1507	2.8	1
0	1508	2.8	2
0	1509	2.8	1
0	1510	2.8	0
0	1529	2.85	1
0	1530	2.85	2
0	1531	2.85	1
0	1532	2.85	0
0	1545	2.9	1
0	1546	2.9	2
0	1547	2.9	1
0	1548	2.9	0
0	1550	2.9	1
0	1551	2.9	2
0	1552	2.9	1
0	1553	2.9	0
0	1572	2.95	1
0	1573	2.95	2
0	1574	2.95	1
0	1575	2.95	0
0	1588	3	1
0	1589	3	2
0	1590	3	1
0	1591	3	0
0	1593	3	1
0	1594	3	2
0	1595	3	1
0	1596	3	0
0	1615	3.05	1
0	1616	3.05	2
0	1617	3.05	1
0	1618	3.05	0
0	1635	3.1	1
0	1636	3.1	2
0	1637	3.1	1
0	1638	3.1	0
0	1640	3.1	1
0	1641	3.1	2
0	1642	3.1	1
0	1643	3.1	0
0	1666	3.15	1
0	1667	3.15	2
0	1668	3.15	1
0	1669	3.15	0
0	1682	3.2	1
0	1683	3.2	2
0	1684	3.2	1
0	1685	3.2	0
0	1687	3.2	1
0	1688	3.2	2
0	1689	3.2	1
0	1690	3.2	0
0	1709	3.25	1
0	1710	3.25	2
0	1711	3.25	1
0	1712	3.25	0
0	1725	3.3	1
0	1726	3.3	2
0	1727	3.3	1
0	1728	3.3	0
0	1730	3.3	1
0	1731	3.3	2
0	1732	3.3	1
0	1733	3.3	0
0	1824	3.35	1
0	1825	3.35	2
0	1826	3.35	1
0	1827	3.35	0
0	1840	3.4	1
0	1841	3.4	2
0	1842	3.4	1
0	1843	3.4	0
0	1845	3.4	1
0	1846	3.4	2
0	1847	3.4	1
0	1848	3.4	0
0	1867	3.45	1
0	1868	3.45	2
0	1869	3.45	1
0	1870	3.45	0
0	1883	3.5	1
0	1884	3.5	2
0	1885	3.5	1
0	1886	3.5	0
0	1888	3.5	1
0	1889	3.5	2
0	1890	3.5	1
0	1891	3.5	0
0	1910	3.55	1
0	1911	3.55	2
0	1912	3.55	1
0	1913	3.55	0
0	1926	3.6	1
0	1927	3.6	2
0	1928	3.6	1
0	1929	3.6	0
0	1931	3.6	1
0	1932	3.6	2
0	1933	3.6	1
0	1934	3.6	0
0	1953	3.65	1
0	1954	3.65	2
0	1955	3.65	1
0	1956	3.65	0
0	1969	3.7	1
0	1970	3.7	2
0	1971	3.7	1
0	1972	3.7	0
0	1974	3.7	1
0	1975	3.7	2
0	1976	3.7	1
0	1977	3.7	0
0	1996	3.75	1
0	1997	3.75	2
0	1998	3.75	1
0	1999	3.75	0
0	2012	3.8	1
0	2013	3.8	2
0	2014	3.8	1
0	2015	3.8	0
0	2017	3.8	1
0	2018	3.8	2
0	2019	3.8	1
0	2020	3.8	0
0	2039	3.85	1
0	2040	3.85	2
0	2041	3.85	1
0	2042	3.85	0
0	2123	3.9	1
0	2124	3.9	2
0	2125	3.9	1
0	2126	3.9	0
0	2128	3.9	1
0	2129	3.9	2
0	2130	3.9	1
0	2131	3.9	0
0	2150	3.95	1
0	2151	3.95	2
0	2152	3.95	1
0	2153	3.95	0
0	2166	4	1
0	2167	4	2
0	2168	4	1
0	2169	4	0
0	2171	4	1
0	2172	4	2
0	2173	4	1
0	2174	4	0
0	2193	4.05	1
0	2194	4.05	2
0	2195	4.05	1
0	2196	4.05	0
0	2213	4.1	1
0	2214	4.1	2
0	2215	4.1	1
0	2216	4.1	0
0	2218	4.1	1
0	2219	4.1	2
0	2220	4.1	1
0	2221	4.1	0
0	2244	4.15	1
0	2245	4.15	2
0	2246	4.15	1
0	2247	4.15	0
0	2260	4.2	1
0	2261	4.2	2
0	2262	4.2	1
0	2263	4.2	0
0	2265	4.2	1
0	2266	4.2	2
0	2267	4.2	1
0	2268	4.2	0
0	2287	4.25	1
0	2288	4.25	2
0	2289	4.25	1
0	2290	4.25	0
0	2303	4.3	1
0	2304	4.3	2
0	2305	4.3	1
0	2306	4.3	0
0	2308	4.3	1
0	2309	4.3	2
0	2310	4.3	1
0	2311	4.3	0
0	2330	4.35	1
0	2331	4.35	2
0	2332	4.35	1
0	2333	4.35	0
0	2346	4.4	1
0	2347	4.4	2
0	2348	4.4	1
0	2349	4.4	0
0	2351	4.4	1
0	2352	4.4	2
0	2353	4.4	1
0	2354	4.4	0
0	2445	4.45	1
0	2446	4.45	2
0	2447	4.45	1
0	2448	4.45	0
0	2461	4.5	1
0	2462	4.5	2
0	2463	4.5	1
0	2464	4.5	0
0	2466	4.5	1
0	2467	4.5	2
0	2468	4.5	1
0	2469	4.5	0
0	2488	4.55	1
0	2489	4.55	2
0	2490	4.55	1
0	2491	4.55	0
0	2504	4.6	1
0	2505	4.6	2
0	2506	4.6	1
0	2507	4.6	0
0	2509	4.6	1
0	2510	4.6	2
0	2511	4.6	1
0	2512	4.6	0
0	2531	4.65	1
0	2532	4.65	2
0	2533	4.65	1
0	2534	4.65	0
0	2547	4.7	1
0	2548	4.7	2
0	2549	4.7	1
0	2550	4.7	0
0	2552	4.7	1
0	2553	4.7	2
0	2554	4.7	1
0	2555	4.7	0
0	2574	4.75	1
0	2575	4.75	2
0	2576	4.75	1
0	2577	4.75	0
0	2590	4.8	1
0	2591	4.8	2
0	2592	4.8	1
0	2593	4.8	0
0	2595	4.8	1
0	2596	4.8	2
0	2597	4.8	1
0	2598	4.8	0
0	2617	4.85	1
0	2618	4.85	2
0	2619	4.85	1
0	2620	4.85	0
0	2633	4.9	1
0	2634	4.9	2
0	2635	4.9	1
0	2636	4.9	0
0	2638	4.9	1
0	2639	4.9	2
0	2640	4.9	1
0	2641	4.9	0
0	2660	4.95	1
0	2661	4.95	2
0	2662	4.95	1
0	2663	4.95	0
0	2739	5	1
0	2740	5	2
0	2741	5	1
0	2742	5	0
0	2744	5	1
0	2745	5	2
0	2746	5	1
0	2747	5	0
0	2766	5.05	1
0	2767	5.05	2
0	2768	5.05	1
0	2769	5.05	0
0	2786	5.1	1
0	2787	5.1	2
0	2788	5.1	1
0	2789	5.1	0
0	2791	5.1	1
0	2792	5.1	2
0	2793	5.1	1
0	2794	5.1	0
0	2818	5.15	1
0	2819	5.15	2
0	2820	5.15	1
0	2821	5.15	0
0	2834	5.2	1
0	2835	5.2	2
0	2836	5.2	1
0	2837	5.2	0
0	2839	5.2	1
0	2840	5.2	2
0	2841	5.2	1
0	2842	5.2	0
0	2861	5.25	1
0	2862	5.25	2
0	2863	5.25	1
0	2864	5.25	0
0	2877	5.3	1
0	2878	5.3	2
0	2879	5.3	1
0	2880	5.3	0
0	2882	5.3	1
0	2883	5.3	2
0	2884	5.3	1
0	2885	5.3	0
0	2904	5.35	1
0	2905	5.35	2
0	2906	5.35	1
0	2907	5.35	0
0	2920	5.4	1
0	2921	5.4	2
0	2922	5.4	1
0	2923	5.4	0
0	2925	5.4	1
0	2926	5.4	2
0	2927	5.4	1
0	2928	5.4	0
0	2947	5.45	1
0	2948	5.45	2
0	2949	5.45	1
0	2950	5.45	0
0	2966	5.5	1
0	2967	5.5	2
0	2968	5.5	1
0	2969	5.5	0
0	2971	5.5	1
0	2972	5.5	2
0	2973	5.5	1
0	2974	5.5	0
0	3098	5.55	1
0	3099	5.55	2
0	3100	5.55	1
0	3101	5.55	0
0	3225	5.6	1
0	3226	5.6	2
0	3227	5.6	1
0	3228	5.6	0
0	3230	5.6	1
0	3231	5.6	2
0	3232	5.6	1
0	3233	5.6	0
0	3279	5.65	1
0	3280	5.65	2
0	3281	5.65	1
0	3282	5.65	0
0	3313	5.7	1
0	3314	5.7	2
0	3315	5.7	1
0	3316	5.7	0
0	3318	5.7	1
0	3319	5.7	2
0	3320	5.7	1
0	3321	5.7	0
0	3340	5.75	1
0	3341	5.75	2
0	3342	5.75	1
0	3343	5.75	0
0	3356	5.8	1
0	3357	5.8	2
0	3358	5.8	1
0	3359	5.8	0
0	3361	5.8	1
0	3362	5.8	2
0	3363	5.8	1
0	3364	5.8	0
0	3383	5.85	1
0	3384	5.85	2
0	3385	5.85	1
0	3386	5.85	0
0	3399	5.9	1
0	3400	5.9	2
0	3401	5.9	1
0	3402	5.9	0
0	3404	5.9	1
0	3405	5.9	2
0	3406	5.9	1
0	3407	5.9	0
0	3426	5.95	1
0	3427	5.95	2
0	3428	5.95	1
0	3429	5.95	0
0	3445	6	1
0	3446	6	2
0	3447	6	1
0	3448	6	0
0	3450	6	1
0	3451	6	2
0	3452	6	1
0	3453	6	0
0	3472	6.05	1
0	3473	6.05	2
0	3474	6.05	1
0	3475	6.05	0
0	3568	6.1	1
0	3569	6.1	2
0	3570	6.1	1
0	3571	6.1	0
0	3573	6.1	1
0	3574	6.1	2
0	3575	6.1	1
0	3576	6.1	0
0	3600	6.15	1
0	3601	6.15	2
0	3602	6.15	1
0	3603	6.15	0
0	3616	6.2	1
0	3617	6.2	2
0	3618	6.2	1
0	3619	6.2	0
0	3621	6.2	1
0	3622	6.2	2
0	3623	6.2	1
0	3624	6.2	0
0	3661	6.25	1
0	3662	6.25	2
0	3663	6.25	1
0	3664	6.25	0
0	3677	6.3	1
0	3678	6.3	2
0	3679	6.3	1
0	3680	6.3	0
0	3682	6.3	1
0	3683	6.3	2
0	3684	6.3	1
0	3685	6.3	0
0	3704	6.35	1
0	3705	6.35	2
0	3706	6.35	1
0	3707	6.35	0
0	3720	6.4	1
0	3721	6.4	2
0	3722	6.4	1
0	3723	6.4	0
0	3725	6.4	1
0	3726	6.4	2
0	3727	6.4	1
0	3728	6.4	0
0	3747	6.45	1
0	3748	6.45	2
0	3749	6.45	1
0	3750	6.45	0
0	3766	6.5	1
0	3767	6.5	2
0	3768	6.5	1
0	3769	6.5	0
0	3771	6.5	1
0	3772	6.5	2
0	3773	6.5	1
0	3774	6.5	0
0	3793	6.55	1
0	3794	6.55	2
0	3795	6.55	1
0	3796	6.55	0
0	3809	6.6	1
0	3810	6.6	2
0	3811	6.6	1
0	3812	6.6	0
0	3814	6.6	1
0	3815	6.6	2
0	3816	6.6	1
0	3817	6.6	0
0	3922	6.65	1
0	3923	6.65	2
0	3924	6.65	1
0	3925	6.65	0
0	3944	6.7	1
0	3945	6.7	2
0	3946	6.7	1
0	3947	6.7	0
0	3949	6.7	1
0	3950	6.7	2
0	3951	6.7	1
0	3952	6.7	0
0	3971	6.75	1
0	3972	6.75	2
0	3973	6.75	1
0	3974	6.75	0
0	4005	6.8	1
0	4006	6.8	2
0	4007	6.8	1
0	4008	6.8	0
0	4010	6.8	1
0	4011	6.8	2
0	4012	6.8	1
0	4013	6.8	0
0	4032	6.85	1
0	4033	6.85	2
0	4034	6.85	1
0	4035	6.85	0
0	4048	6.9	1
0	4049	6.9	2
0	4050	6.9	1
0	4051	6.9	0
0	4053	6.9	1
0	4054	6.9	2
0	4055	6.9	1
0	4056	6.9	0
0	4075	6.95	1
0	4076	6.95	2
0	4077	6.95	1
0	4078	6.95	0
0	4094	7	1
0	4095	7	2
0	4096	7	1
0	4097	7	0
0	4099	7	1
0	4100	7	2
0	4101	7	1
0	4102	7	0
0	4121	7.05	1
0	4122	7.05	2
0	4123	7.05	1
0	4124	7.05	0
0	4141	7.1	1
0	4142	7.1	2
0	4143	7.1	1
0	4144	7.1	0
0	4146	7.1	1
0	4147	7.1	2
0	4148	7.1	1
0	4149	7.1	0
0	4173	7.15	1
0	4174	7.15	2
0	4175	7.15	1
0	4176	7.15	0
0	4242	7.2	1
0	4243	7.2	2
0	4244	7.2	1
0	4245	7.2	0
0	4247	7.2	1
0	4248	7.2	2
0	4249	7.2	1
0	4250	7.2	0
0	4269	7.25	1
0	4270	7.25	2
0	4271	7.25	1
0	4272	7.25	0
0	4285	7.3	1
0	4286	7.3	2
0	4287	7.3	1
0	4288	7.3	0
0	4290	7.3	1
0	4291	7.3	2
0	4292	7.3	1
0	4293	7.3	0
0	4335	7.35	1
0	4336	7.35	2
0	4337	7.35	1
0	4338	7.35	0
0	4351	7.4	1
0	4352	7.4	2
0	4353	7.4	1
0	4354	7.4	0
0	4356	7.4	1
0	4357	7.4	2
0	4358	7.4	1
0	4359	7.4	0
0	4378	7.45	1
0	4379	7.45	2
0	4380	7.45	1
0	4381	7.45	0
0	4394	7.5	1
0	4395	7.5	2
0	4396	7.5	1
0	4397	7.5	0
0	4399	7.5	1
0	4400	7.5	2
0	4401	7.5	1
0	4402	7.5	0
0	4421	7.55	1
0	4422	7.55	2
0	4423	7.55	1
0	4424	7.55	0
0	4437	7.6	1
0	4438	7.6	2
0	4439	7.6	1
0	4440	7.6	0
0	4442	7.6	1
0	4443	7.6	2
0	4444	7.6	1
0	4445	7.6	0
0	4464	7.65	1
0	4465	7.65	2
0	4466	7.65	1
0	4467	7.65	0
0	4480	7.7	1
0	4481	7.7	2
0	4482	7.7	1
0	4483	7.7	0
0	4485	7.7	1
0	4486	7.7	2
0	4487	7.7	1
0	4488	7.7	0
0	4525	7.75	1
0	4526	7.75	2
0	4527	7.75	1
0	4528	7.75	0
0	4541	7.8	1
0	4542	7.8	2
0	4543	7.8	1
0	4544	7.8	0
0	4546	7.8	1
0	4547	7.8	2
0	4548	7.8	1
0	4549	7.8	0
0	4568	7.85	1
0	4569	7.85	2
0	4570	7.85	1
0	4571	7.85	0
0	4602	7.9	1
0	4603	7.9	2
0	4604	7.9	1
0	4605	7.9	0
0	4607	7.9	1
0	4608	7.9	2
0	4609	7.9	1
0	4610	7.9	0
0	4629	7.95	1
0	4630	7.95	2
0	4631	7.95	1
0	4632	7.95	0
0	4645	8	1
0	4646	8	2
0	4647	8	1
0	4648	8	0
0	4650	8	1
0	4651	8	2
0	4652	8	1
0	4653	8	0
0	4672	8.05	1
0	4673	8.05	2
0	4674	8.05	1
0	4675	8.05	0
0	4692	8.1	1
0	4693	8.1	2
0	4694	8.1	1
0	4695	8.1	0
0	4697	8.1	1
0	4698	8.1	2
0	4699	8.1	1
0	4700	8.1	0
0	4724	8.15	1
0	4725	8.15	2
0	4726	8.15	1
0	4727	8.15	0
0	4740	8.2	1
0	4741	8.2	2
0	4742	8.2	1
0	4743	8.2	0
0	4745	8.2	1
0	4746	8.2	2
0	4747	8.2	1
0	4748	8.2	0
0	4767	8.25	1
0	4768	8.25	2
0	4769	8.25	1
0	4770	8.25	0
0	4797	8.3	1
0	4798	8.3	2
0	4799	8.3	1
0	4800	8.3	0
0	4802	8.3	1
0	4803	8.3	2
0	4804	8.3	1
0	4805	8.3	0
0	4824	8.35	1
0	4825	8.35	2
0	4826	8.35	1
0	4827	8.35	0
0	4840	8.4	1
0	4841	8.4	2
0	4842	8.4	1
0	4843	8.4	0
0	4845	8.4	1
0	4846	8.4	2
0	4847	8.4	1
0	4848	8.4	0
0	4885	8.45	1
0	4886	8.45	2
0	4887	8.45	1
0	4888	8.45	0
0	4901	8.5	1
0	4902	8.5	2
0	4903	8.5	1
0	4904	8.5	0
0	4906	8.5	1
0	4907	8.5	2
0	4908	8.5	1
0	4909	8.5	0
0	4928	8.55	1
0	4929	8.55	2
0	4930	8.55	1
0	4931	8.55	0
0	4944	8.6	1
0	4945	8.6	2
0	4946	8.6	1
0	4947	8.6	0
0	4949	8.6	1
0	4950	8.6	2
0	4951	8.6	1
0	4952	8.6	0
0	4971	8.65	1
0	4972	8.65	2
0	4973	8.65	1
0	4974	8.65	0
0	4987	8.7	1
0	4988	8.7	2
0	4989	8.7	1
0	4990	8.7	0
0	4992	8.7	1
0	4993	8.7	2
0	4994	8.7	1
0	4995	8.7	0
0	5014	8.75	1
0	5015	8.75	2
0	5016	8.75	1
0	5017	8.75	0
0	5048	8.8	1
0	5049	8.8	2
0	5050	8.8	1
0	5051	8.8	0
0	5053	8.8	1
0	5054	8.8	2
0	5055	8.8	1
0	5056	8.8	0
0	5110	8.85	1
0	5111	8.85	2
0	5112	8.85	1
0	5113	8.85	0
0	5126	8.9	1
0	5127	8.9	2
0	5128	8.9	1
0	5129	8.9	0
0	5131	8.9	1
0	5132	8.9	2
0	5133	8.9	1
0	5134	8.9	0
0	5199	8.95	1
0	5200	8.95	2
0	5201	8.95	1
0	5202	8.95	0
0	5239	9	1
0	5240	9	2
0	5241	9	1
0	5242	9	0
0	5244	9	1
0	5245	9	2
0	5246	9	1
0	5247	9	0
0	5266	9.05	1
0	5267	9.05	2
0	5268	9.05	1
0	5269	9.05	0
0	5286	9.1	1
0	5287	9.1	2
0	5288	9.1	1
0	5289	9.1	0
0	5291	9.1	1
0	5292	9.1	2
0	5293	9.1	1
0	5294	9.1	0
0	5318	9.15	1
0	5319	9.15	2
0	5320	9.15	1
0	5321	9.15	0
0	5334	9.2	1
0	5335	9.2	2
0	5336	9.2	1
0	5337	9.2	0
0	5339	9.2	1
0	5340	9.2	2
0	5341	9.2	1
0	5342	9.2	0
0	5361	9.25	1
0	5362	9.25	2
0	5363	9.25	1
0	5364	9.25	0
0	5377	9.3	1
0	5378	9.3	2
0	5379	9.3	1
0	5380	9.3	0
0	5382	9.3	1
0	5383	9.3	2
0	5384	9.3	1
0	5385	9.3	0
0	5422	9.35	1
0	5423	9.35	2
0	5424	9.35	1
0	5425	9.35	0
0	5452	9.4	1
0	5453	9.4	2
0	5454	9.4	1
0	5455	9.4	0
0	5457	9.4	1
0	5458	9.4	2
0	5459	9.4	1
0	5460	9.4	0
0	5479	9.45	1
0	5480	9.45	2
0	5481	9.45	1
0	5482	9.45	0
0	5530	9.5	1
0	5531	9.5	2
0	5532	9.5	1
0	5533	9.5	0
0	5535	9.5	1
0	5536	9.5	2
0	5537	9.5	1
0	5538	9.5	0
0	5575	9.55	1
0	5576	9.55	2
0	5577	9.55	1
0	5578	9.55	0
0	5591	9.6	1
0	5592	9.6	2
0	5593	9.6	1
0	5594	9.6	0
0	5596	9.6	1
0	5597	9.6	2
0	5598	9.6	1
0	5599	9.6	0
0	5618	9.65	1
0	5619	9.65	2
0	5620	9.65	1
0	5621	9.65	0
0	5634	9.7	1
0	5635	9.7	2
0	5636	9.7	1
0	5637	9.7	0
0	5639	9.7	1
0	5640	9.7	2
0	5641	9.7	1
0	5642	9.7	0
0	5661	9.75	1
0	5662	9.75	2
0	5663	9.75	1
0	5664	9.75	0
0	5677	9.8	1
0	5678	9.8	2
0	5679	9.8	1
0	5680	9.8	0
0	5682	9.8	1
0	5683	9.8	2
0	5684	9.8	1
0	5685	9.8	0
0	5704	9.85	1
0	5705	9.85	2
0	5706	9.85	1
0	5707	9.85	0
0	5738	9.9	1
0	5739	9.9	2
0	5740	9.9	1
0	5741	9.9	0
0	5743	9.9	1
0	5744	9.9	2
0	5745	9.9	1
0	5746	9.9	0
0	5800	9.95	1
0	5801	9.95	2
0	5802	9.95	1
0	5803	9.95	0
0	5817	10	1
0	5818	10	2
0	5819	10	1
0	5820	10	0
0	5822	10	1
0	5823	10	2
0	5824	10	1
0	5825	10	0
0	5862	10.05	1
0	5863	10.05	2
0	5864	10.05	1
0	5865	10.05	0
0	5900	10.1	1
0	5901	10.1	2
0	5902	10.1	1
0	5903	10.1	0
0	5905	10.1	1
0	5906	10.1	2
0	5907	10.1	1
0	5908	10.1	0
0	5932	10.15	1
0	5933	10.15	2
0	5934	10.15	1
0	5935	10.15	0
0	5948	10.2	1
0	5949	10.2	2
0	5950	10.2	1
0	5951	10.2	0
0	5953	10.2	1
0	5954	10.2	2
0	5955	10.2	1
0	5956	10.2	0
0	5975	10.25	1
0	5976	10.25	2
0	5977	10.25	1
0	5978	10.25	0
0	5991	10.3	1
0	5992	10.3	2
0	5993	10.3	1
0	5994	10.3	0
0	5996	10.3	1
0	5997	10.3	2
0	5998	10.3	1
0	5999	10.3	0
0	6018	10.35	1
0	6019	10.35	2
0	6020	10.35	1
0	6021	10.35	0
0	6034	10.4	1
0	6035	10.4	2
0	6036	10.4	1
0	6037	10.4	0
0	6039	10.4	1
0	6040	10.4	2
0	6041	10.4	1
0	6042	10.4	0
0	6079	10.45	1
0	6080	10.45	2
0	6081	10.45	1
0	6082	10.45	0
0	6130	10.5	1
0	6131	10.5	2
0	6132	10.5	1
0	6133	10.5	0
0	6135	10.5	1
0	6136	10.5	2
0	6137	10.5	1
0	6138	10.5	0
0	6157	10.55	1
0	6158	10.55	2
0	6159	10.55	1
0	6160	10.55	0
0	6208	10.6	1
0	6209	10.6	2
0	6210	10.6	1
0	6211	10.6	0
0	6213	10.6	1
0	6214	10.6	2
0	6215	10.6	1
0	6216	10.6	0
0	6253	10.65	1
0	6254	10.65	2
0	6255	10.65	1
0	6256	10.65	0
0	6269	10.7	1
0	6270	10.7	2
0	6271	10.7	1
0	6272	10.7	0
0	6274	10.7	1
0	6275	10.7	2
0	6276	10.7	1
0	6277	10.7	0
0	6296	10.75	1
0	6297	10.75	2
0	6298	10.75	1
0	6299	10.75	0
0	6312	10.8	1
0	6313	10.8	2
0	6314	10.8	1
0	6315	10.8	0
0	6317	10.8	1
0	6318	10.8	2
0	6319	10.8	1
0	6320	10.8	0
0	6339	10.85	1
0	6340	10.85	2
0	6341	10.85	1
0	6342	10.85	0
0	6355	10.9	1
0	6356	10.9	2
0	6357	10.9	1
0	6358	10.9	0
0	6360	10.9	1
0	6361	10.9	2
0	6362	10.9	1
0	6363	10.9	0
0	6382	10.95	1
0	6383	10.95	2
0	6384	10.95	1
0	6385	10.95	0
0	6416	11	1
0	6417	11	2
0	6418	11	1
0	6419	11	0
0	6421	11	1
0	6422	11	2
0	6423	11	1
0	6424	11	0
0	6461	11.05	1
0	6462	11.05	2
0	6463	11.05	1
0	6464	11.05	0
0	6481	11.1	1
0	6482	11.1	2
0	6483	11.1	1
0	6484	11.1	0
0	6486	11.1	1
0	6487	11.1	2
0	6488	11.1	1
0	6489	11.1	0
0	6548	11.15	1
0	6549	11.15	2
0	6550	11.15	1
0	6551	11.15	0
0	6569	11.2	1
0	6570	11.2	2
0	6571	11.2	1
0	6572	11.2	0
0	6574	11.2	1
0	6575	11.2	2
0	6576	11.2	1
0	6577	11.2	0
0	6596	11.25	1
0	6597	11.25	2
0	6598	11.25	1
0	6599	11.25	0
0	6612	11.3	1
0	6613	11.3	2
0	6614	11.3	1
0	6615	11.3	0
0	6617	11.3	1
0	6618	11.3	2
0	6619	11.3	1
0	6620	11.3	0
0	6639	11.35	1
0	6640	11.35	2
0	6641	11.35	1
0	6642	11.35	0
0	6655	11.4	1
0	6656	11.4	2
0	6657	11.4	1
0	6658	11.4	0
0	6660	11.4	1
0	6661	11.4	2
0	6662	11.4	1
0	6663	11.4	0
0	6682	11.45	1
0	6683	11.45	2
0	6684	11.45	1
0	6685	11.45	0
0	6698	11.5	1
0	6699	11.5	2
0	6700	11.5	1
0	6701	11.5	0
0	6703	11.5	1
0	6704	11.5	2
0	6705	11.5	1
0	6706	11.5	0
0	6743	11.55	1
0	6744	11.55	2
0	6745	11.55	1
0	6746	11.55	0
0	6759	11.6	1
0	6760	11.6	2
0	6761	11.6	1
0	6762	11.6	0
0	6764	11.6	1
0	6765	11.6	2
0	6766	11.6	1
0	6767	11.6	0
0	6786	11.65	1
0	6787	11.65	2
0	6788	11.65	1
0	6789	11.65	0
0	6820	11.7	1
0	6821	11.7	2
0	6822	11.7	1
0	6823	11.7	0
0	6825	11.7	1
0	6826	11.7	2
0	6827	11.7	1
0	6828	11.7	0
0	6847	11.75	1
0	6848	11.75	2
0	6849	11.75	1
0	6850	11.75	0
0	6863	11.8	1
0	6864	11.8	2
0	6865	11.8	1
0	6866	11.8	0
0	6868	11.8	1
0	6869	11.8	2
0	6870	11.8	1
0	6871	11.8	0
0	6890	11.85	1
0	6891	11.85	2
0	6892	11.85	1
0	6893	11.85	0
0	6906	11.9	1
0	6907	11.9	2
0	6908	11.9	1
0	6909	11.9	0
0	6911	11.9	1
0	6912	11.9	2
0	6913	11.9	1
0	6914	11.9	0
0	6933	11.95	1
0	6934	11.95	2
0	6935	11.95	1
0	6936	11.95	0
0	6952	12	1
0	6953	12	2
0	6954	12	1
0	6955	12	0
0	6957	12	1
0	6958	12	2
0	6959	12	1
0	6960	12	0
0	6979	12.05	1
0	6980	12.05	2
0	6981	12.05	1
0	6982	12.05	0
0	7017	12.1	1
0	7018	12.1	2
0	7019	12.1	1
0	7020	12.1	0
0	7022	12.1	1
0	7023	12.1	2
0	7024	12.1	1
0	7025	12.1	0
0	7049	12.15	1
0	7050	12.15	2
0	7051	12.15	1
0	7052	12.15	0
0	7065	12.2	1
0	7066	12.2	2
0	7067	12.2	1
0	7068	12.2	0
0	7070	12.2	1
0	7071	12.2	2
0	7072	12.2	1
0	7073	12.2	0
0	7127	12.25	1
0	7128	12.25	2
0	7129	12.25	1
0	7130	12.25	0
0	7143	12.3	1
0	7144	12.3	2
0	7145	12.3	1
0	7146	12.3	0
0	7148	12.3	1
0	7149	12.3	2
0	7150	12.3	1
0	7151	12.3	0
0	7170	12.35	1
0	7171	12.35	2
0	7172	12.35	1
0	7173	12.35	0
0	7186	12.4	1
0	7187	12.4	2
0	7188	12.4	1
0	7189	12.4	0
0	7191	12.4	1
0	7192	12.4	2
0	7193	12.4	1
0	7194	12.4	0
0	7213	12.45	1
0	7214	12.45	2
0	7215	12.45	1
0	7216	12.45	0
0	7229	12.5	1
0	7230	12.5	2
0	7231	12.5	1
0	7232	12.5	0
0	7234	12.5	1
0	7235	12.5	2
0	7236	12.5	1
0	7237	12.5	0
0	7256	12.55	1
0	7257	12.55	2
0	7258	12.55	1
0	7259	12.55	0
0	7272	12.6	1
0	7273	12.6	2
0	7274	12.6	1
0	7275	12.6	0
0	7277	12.6	1
0	7278	12.6	2
0	7279	12.6	1
0	7280	12.6	0
0	7363	12.65	1
0	7364	12.65	2
0	7365	12.65	1
0	7366	12.65	0
0	7385	12.7	1
0	7386	12.7	2
0	7387	12.7	1
0	7388	12.7	0
0	7390	12.7	1
0	7391	12.7	2
0	7392	12.7	1
0	7393	12.7	0
0	7412	12.75	1
0	7413	12.75	2
0	7414	12.75	1
0	7415	12.75	0
0	7464	12.8	1
0	7465	12.8	2
0	7466	12.8	1
0	7467	12.8	0
0	7469	12.8	1
0	7470	12.8	2
0	7471	12.8	1
0	7472	12.8	0
0	7491	12.85	1
0	7492	12.85	2
0	7493	12.85	1
0	7494	12.85	0
0	7507	12.9	1
0	7508	12.9	2
0	7509	12.9	1
0	7510	12.9	0
0	7512	12.9	1
0	7513	12.9	2
0	7514	12.9	1
0	7515	12.9	0
0	7534	12.95	1
0	7535	12.95	2
0	7536	12.95	1
0	7537	12.95	0
0	7550	13	1
0	7551	13	2
0	7552	13	1
0	7553	13	0
0	7555	13	1
0	7556	13	2
0	7557	13	1
0	7558	13	0
0	7577	13.05	1
0	7578	13.05	2
0	7579	13.05	1
0	7580	13.05	0
0	7597	13.1	1
0	7598	13.1	2
0	7599	13.1	1
0	7600	13.1	0
0	7602	13.1	1
0	7603	13.1	2
0	7604	13.1	1
0	7605	13.1	0
0	7629	13.15	1
0	7630	13.15	2
0	7631	13.15	1
0	7632	13.15	0
0	7677	13.2	1
0	7678	13.2	2
0	7679	13.2	1
0	7680	13.2	0
0	7682	13.2	1
0	7683	13.2	2
0	7684	13.2	1
0	7685	13.2	0
0	7704	13.25	1
0	7705	13.25	2
0	7706	13.25	1
0	7707	13.25	0
0	7720	13.3	1
0	7721	13.3	2
0	7722	13.3	1
0	7723	13.3	0
0	7725	13.3	1
0	7726	13.3	2
0	7727	13.3	1
0	7728	13.3	0
0	7797	13.35	1
0	7798	13.35	2
0	7799	13.35	1
0	7800	13.35	0
0	7813	13.4	1
0	7814	13.4	2
0	7815	13.4	1
0	7816	13.4	0
0	7818	13.4	1
0	7819	13.4	2
0	7820	13.4	1
0	7821	13.4	0
0	7840	13.45	1
0	7841	13.45	2
0	7842	13.45	1
0	7843	13.45	0
0	7856	13.5	1
0	7857	13.5	2
0	7858	13.5	1
0	7859	13.5	0
0	7861	13.5	1
0	7862	13.5	2
0	7863	13.5	1
0	7864	13.5	0
0	7883	13.55	1
0	7884	13.55	2
0	7885	13.55	1
0	7886	13.55	0
0	7899	13.6	1
0	7900	13.6	2
0	7901	13.6	1
0	7902	13.6	0
0	7904	13.6	1
0	7905	13.6	2
0	7906	13.6	1
0	7907	13.6	0
0	7926	13.65	1
0	7927	13.65	2
0	7928	13.65	1
0	7929	13.65	0
0	7942	13.7	1
0	7943	13.7	2
0	7944	13.7	1
0	7945	13.7	0
0	7947	13.7	1
0	7948	13.7	2
0	7949	13.7	1
0	7950	13.7	0
0	8022	13.75	1
0	8023	13.75	2
0	8024	13.75	1
0	8025	13.75	0
0	8038	13.8	1
0	8039	13.8	2
0	8040	13.8	1
0	8041	13.8	0
0	8043	13.8	1
0	8044	13.8	2
0	8045	13.8	1
0	8046	13.8	0
0	8065	13.85	1
0	8066	13.85	2
0	8067	13.85	1
0	8068	13.85	0
0	8134	13.9	1
0	8135	13.9	2
0	8136	13.9	1
0	8137	13.9	0
0	8139	13.9	1
0	8140	13.9	2
0	8141	13.9	1
0	8142	13.9	0
0	8161	13.95	1
0	8162	13.95	2
0	8163	13.95	1
0	8164	13.95	0
0	8177	14	1
0	8178	14	2
0	8179	14	1
0	8180	14	0
0	8182	14	1
0	8183	14	2
0	8184	14	1
0	8185	14	0
0	8204	14.05	1
0	8205	14.05	2
0	8206	14.05	1
0	8207	14.05	0
0	8224	14.1	1
0	8225	14.1	2
0	8226	14.1	1
0	8227	14.1	0
0	8229	14.1	1
0	8230	14.1	2
0	8231	14.1	1
0	8232	14.1	0
0	8256	14.15	1
0	8257	14.15	2
0	8258	14.15	1
0	8259	14.15	0
0	8272	14.2	1
0	8273	14.2	2
0	8274	14.2	1
0	8275	14.2	0
0	8277	14.2	1
0	8278	14.2	2
0	8279	14.2	1
0	8280	14.2	0
0	8299	14.25	1
0	8300	14.25	2
0	8301	14.25	1
0	8302	14.25	0
0	8355	14.3	1
0	8356	14.3	2
0	8357	14.3	1
0	8358	14.3	0
0	8360	14.3	1
0	8361	14.3	2
0	8362	14.3	1
0	8363	14.3	0
0	8382	14.35	1
0	8383	14.35	2
0	8384	14.35	1
0	8385	14.35	0
0	8398	14.4	1
0	8399	14.4	2
0	8400	14.4	1
0	8401	14.4	0
0	8403	14.4	1
0	8404	14.4	2
0	8405	14.4	1
0	8406	14.4	0
0	8443	14.45	1
0	8444	14.45	2
0	8445	14.45	1
0	8446	14.45	0
0	8459	14.5	1
0	8460	14.5	2
0	8461	14.5	1
0	8462	14.5	0
0	8464	14.5	1
0	8465	14.5	2
0	8466	14.5	1
0	8467	14.5	0
0	8486	14.55	1
0	8487	14.55	2
0	8488	14.55	1
0	8489	14.55	0
0	8502	14.6	1
0	8503	14.6	2
0	8504	14.6	1
0	8505	14.6	0
0	8507	14.6	1
0	8508	14.6	2
0	8509	14.6	1
0	8510	14.6	0
0	8529	14.65	1
0	8530	14.65	2
0	8531	14.65	1
0	8532	14.65	0
0	8545	14.7	1
0	8546	14.7	2
0	8547	14.7	1
0	8548	14.7	0
0	8550	14.7	1
0	8551	14.7	2
0	8552	14.7	1
0	8553	14.7	0
0	8572	14.75	1
0	8573	14.75	2
0	8574	14.75	1
0	8575	14.75	0
0	8588	14.8	1
0	8589	14.8	2
0	8590	14.8	1
0	8591	14.8	0
0	8593	14.8	1
0	8594	14.8	2
0	8595	14.8	1
0	8596	14.8	0
0	8629	14.85	1
0	8630	14.85	2
0	8631	14.85	1
0	8632	14.85	0
0	8645	14.9	1
0	8646	14.9	2
0	8647	14.9	1
0	8648	14.9	0
0	8650	14.9	1
0	8651	14.9	2
0	8652	14.9	1
0	8653	14.9	0
0	8672	14.95	1
0	8673	14.95	2
0	8674	14.95	1
0	8675	14.95	0
0	8707	15	1
0	8708	15	2
0	8709	15	1
0	8710	15	0
0	8712	15	1
0	8713	15	2
0	8714	15	1
0	8715	15	0
0	8734	15.05	1
0	8735	15.05	2
0	8736	15.05	1
0	8737	15.05	0
0	8754	15.1	1
0	8755	15.1	2
0	8756	15.1	1
0	8757	15.1	0
0	8759	15.1	1
0	8760	15.1	2
0	8761	15.1	1
0	8762	15.1	0
0	8786	15.15	1
0	8787	15.15	2
0	8788	15.15	1
0	8789	15.15	0
0	8802	15.2	1
0	8803	15.2	2
0	8804	15.2	1
0	8805	15.2	0
0	8807	15.2	1
0	8808	15.2	2
0	8809	15.2	1
0	8810	15.2	0
0	8829	15.25	1
0	8830	15.25	2
0	8831	15.25	1
0	8832	15.25	0
0	8845	15.3	1
0	8846	15.3	2
0	8847	15.3	1
0	8848	15.3	0
0	8850	15.3	1
0	8851	15.3	2
0	8852	15.3	1
0	8853	15.3	0
0	8872	15.35	1
0	8873	15.35	2
0	8874	15.35	1
0	8875	15.35	0
0	8923	15.4	1
0	8924	15.4	2
0	8925	15.4	1
0	8926	15.4	0
0	8928	15.4	1
0	8929	15.4	2
0	8930	15.4	1
0	8931	15.4	0
0	8950	15.45	1
0	8951	15.45	2
0	8952	15.45	1
0	8953	15.45	0
0	9012	15.5	1
0	9013	15.5	2
0	9014	15.5	1
0	9015	15.5	0
0	9017	15.5	1
0	9018	15.5	2
0	9019	15.5	1
0	9020	15.5	0
0	9063	15.55	1
0	9064	15.55	2
0	9065	15.55	1
0	9066	15.55	0
0	9079	15.6	1
0	9080	15.6	2
0	9081	15.6	1
0	9082	15.6	0
0	9084	15.6	1
0	9085	15.6	2
0	9086	15.6	1
0	9087	15.6	0
0	9124	15.65	1
0	9125	15.65	2
0	9126	15.65	1
0	9127	15.65	0
0	9140	15.7	1
0	9141	15.7	2
0	9142	15.7	1
0	9143	15.7	0
0	9145	15.7	1
0	9146	15.7	2
0	9147	15.7	1
0	9148	15.7	0
0	9167	15.75	1
0	9168	15.75	2
0	9169	15.75	1
0	9170	15.75	0
0	9183	15.8	1
0	9184	15.8	2
0	9185	15.8	1
0	9186	15.8	0
0	9188	15.8	1
0	9189	15.8	2
0	9190	15.8	1
0	9191	15.8	0
0	9210	15.85	1
0	9211	15.85	2
0	9212	15.85	1
0	9213	15.85	0
0	9226	15.9	1
0	9227	15.9	2
0	9228	15.9	1
0	9229	15.9	0
0	9231	15.9	1
0	9232	15.9	2
0	9233	15.9	1
0	9234	15.9	0
0	9271	15.95	1
0	9272	15.95	2
0	9273	15.95	1
0	9274	15.95	0
0	9287	16	1
0	9288	16	2
0	9289	16	1
0	9290	16	0
0	9292	16	1
0	9293	16	2
0	9294	16	1
0	9295	16	0
0	9332	16.05	1
0	9333	16.05	2
0	9334	16.05	1
0	9335	16.05	0
0	9370	16.1	1
0	9371	16.1	2
0	9372	16.1	1
0	9373	16.1	0
0	9375	16.1	1
0	9376	16.1	2
0	9377	16.1	1
0	9378	16.1	0
0	9402	16.15	1
0	9403	16.15	2
0	9404	16.15	1
0	9405	16.15	0
0	9436	16.2	1
0	9437	16.2	2
0	9438	16.2	1
0	9439	16.2	0
0	9441	16.2	1
0	9442	16.2	2
0	9443	16.2	1
0	9444	16.2	0
0	9463	16.25	1
0	9464	16.25	2
0	9465	16.25	1
0	9466	16.25	0
0	9479	16.3	1
0	9480	16.3	2
0	9481	16.3	1
0	9482	16.3	0
0	9484	16.3	1
0	9485	16.3	2
0	9486	16.3	1
0	9487	16.3	0
0	9506	16.35	1
0	9507	16.35	2
0	9508	16.35	1
0	9509	16.35	0
0	9522	16.4	1
0	9523	16.4	2
0	9524	16.4	1
0	9525	16.4	0
0	9527	16.4	1
0	9528	16.4	2
0	9529	16.4	1
0	9530	16.4	0
0	9549	16.45	1
0	9550	16.45	2
0	9551	16.45	1
0	9552	16.45	0
0	9600	16.5	1
0	9601	16.5	2
0	9602	16.5	1
0	9603	16.5	0
0	9605	16.5	1
0	9606	16.5	2
0	9607	16.5	1
0	9608	16.5	0
0	9627	16.55	1
0	9628	16.55	2
0	9629	16.55	1
0	9630	16.55	0
0	9666	16.6	1
0	9667	16.6	2
0	9668	16.6	1
0	9669	16.6	0
0	9671	16.6	1
0	9672	16.6	2
0	9673	16.6	1
0	9674	16.6	0
0	9711	16.65	1
0	9712	16.65	2
0	9713	16.65	1
0	9714	16.65	0
0	9727	16.7	1
0	9728	16.7	2
0	9729	16.7	1
0	9730	16.7	0
0	9732	16.7	1
0	9733	16.7	2
0	9734	16.7	1
0	9735	16.7	0
0	9772	16.75	1
0	9773	16.75	2
0	9774	16.75	1
0	9775	16.75	0
0	9788	16.8	1
0	9789	16.8	2
0	9790	16.8	1
0	9791	16.8	0
0	9793	16.8	1
0	9794	16.8	2
0	9795	16.8	1
0	9796	16.8	0
0	9815	16.85	1
0	9816	16.85	2
0	9817	16.85	1
0	9818	16.85	0
0	9831	16.9	1
0	9832	16.9	2
0	9833	16.9	1
0	9834	16.9	0
0	9836	16.9	1
0	9837	16.9	2
0	9838	16.9	1
0	9839	16.9	0
0	9858	16.95	1
0	9859	16.95	2
0	9860	16.95	1
0	9861	16.95	0
0	9877	17	1
0	9878	17	2
0	9879	17	1
0	9880	17	0
0	9882	17	1
0	9883	17	2
0	9884	17	1
0	9885	17	0
0	9922	17.05	1
0	9923	17.05	2
0	9924	17.05	1
0	9925	17.05	0
0	9942	17.1	1
0	9943	17.1	2
0	9944	17.1	1
0	9945	17.1	0
0	9947	17.1	1
0	9948	17.1	2
0	9949	17.1	1
0	9950	17.1	0
0	10020	17.15	1
0	10021	17.15	2
0	10022	17.15	1
0	10023	17.15	0
0	10047	17.2	1
0	10048	17.2	2
0	10049	17.2	1
0	10050	17.2	0
0	10052	17.2	1
0	10053	17.2	2
0	10054	17.2	1
0	10055	17.2	0
0	10074	17.25	1
0	10075	17.25	2
0	10076	17.25	1
0	10077	17.25	0
0	10104	17.3	1
0	10105	17.3	2
0	10106	17.3	1
0	10107	17.3	0
0	10109	17.3	1
0	10110	17.3	2
0	10111	17.3	1
0	10112	17.3	0
0	10131	17.35	1
0	10132	17.35	2
0	10133	17.35	1
0	10134	17.35	0
0	10147	17.4	1
0	10148	17.4	2
0	10149	17.4	1
0	10150	17.4	0
0	10152	17.4	1
0	10153	17.4	2
0	10154	17.4	1
0	10155	17.4	0
0	10174	17.45	1
0	10175	17.45	2
0	10176	17.45	1
0	10177	17.45	0
0	10190	17.5	1
0	10191	17.5	2
0	10192	17.5	1
0	10193	17.5	0
0	10195	17.5	1
0	10196	17.5	2
0	10197	17.5	1
0	10198	17.5	0
0	10217	17.55	1
0	10218	17.55	2
0	10219	17.55	1
0	10220	17.55	0
0	10233	17.6	1
0	10234	17.6	2
0	10235	17.6	1
0	10236	17.6	0
0	10238	17.6	1
0	10239	17.6	2
0	10240	17.6	1
0	10241	17.6	0
0	10260	17.65	1
0	10261	17.65	2
0	10262	17.65	1
0	10263	17.65	0
0	10281	17.7	1
0	10282	17.7	2
0	10283	17.7	1
0	10284	17.7	0
0	10286	17.7	1
0	10287	17.7	2
0	10288	17.7	1
0	10289	17.7	0
0	10308	17.75	1
0	10309	17.75	2
0	10310	17.75	1
0	10311	17.75	0
0	10324	17.8	1
0	10325	17.8	2
0	10326	17.8	1
0	10327	17.8	0
0	10329	17.8	1
0	10330	17.8	2
0	10331	17.8	1
0	10332	17.8	0
0	10351	17.85	1
0	10352	17.85	2
0	10353	17.85	1
0	10354	17.85	0
0	10367	17.9	1
0	10368	17.9	2
0	10369	17.9	1
0	10370	17.9	0
0	10372	17.9	1
0	10373	17.9	2
0	10374	17.9	1
0	10375	17.9	0
0	10394	17.95	1
0	10395	17.95	2
0	10396	17.95	1
0	10397	17.95	0
0	10410	18	1
0	10411	18	2
0	10412	18	1
0	10413	18	0
0	10415	18	1
0	10416	18	2
0	10417	18	1
0	10418	18	0
0	10437	18.05	1
0	10438	18.05	2
0	10439	18.05	1
0	10440	18.05	0
0	10457	18.1	1
0	10458	18.1	2
0	10459	18.1	1
0	10460	18.1	0
0	10462	18.1	1
0	10463	18.1	2
0	10464	18.1	1
0	10465	18.1	0
0	10489	18.15	1
0	10490	18.15	2
0	10491	18.15	1
0	10492	18.15	0
0	10505	18.2	1
0	10506	18.2	2
0	10507	18.2	1
0	10508	18.2	0
0	10510	18.2	1
0	10511	18.2	2
0	10512	18.2	1
0	10513	18.2	0
0	10532	18.25	1
0	10533	18.25	2
0	10534	18.25	1
0	10535	18.25	0
0	10548	18.3	1
0	10549	18.3	2
0	10550	18.3	1
0	10551	18.3	0
0	10553	18.3	1
0	10554	18.3	2
0	10555	18.3	1
0	10556	18.3	0
0	10575	18.35	1
0	10576	18.35	2
0	10577	18.35	1
0	10578	18.35	0
0	10591	18.4	1
0	10592	18.4	2
0	10593	18.4	1
0	10594	18.4	0
0	10596	18.4	1
0	10597	18.4	2
0	10598	18.4	1
0	10599	18.4	0
0	10618	18.45	1
0	10619	18.45	2
0	10620	18.45	1
0	10621	18.45	0
0	10634	18.5	1
0	10635	18.5	2
0	10636	18.5	1
0	10637	18.5	0
0	10639	18.5	1
0	10640	18.5	2
0	10641	18.5	1
0	10642	18.5	0
0	10661	18.55	1
0	10662	18.55	2
0	10663	18.55	1
0	10664	18.55	0
0	10677	18.6	1
0	10678	18.6	2
0	10679	18.6	1
0	10680	18.6	0
0	10682	18.6	1
0	10683	18.6	2
0	10684	18.6	1
0	10685	18.6	0
0	10750	18.65	1
0	10751	18.65	2
0	10752	18.65	1
0	10753	18.65	0
0	10769	18.7	1
0	10770	18.7	2
0	10771	18.7	1
0	10772	18.7	0
0	10774	18.7	1
0	10775	18.7	2
0	10776	18.7	1
0	10777	18.7	0
0	10796	18.75	1
0	10797	18.75	2
0	10798	18.75	1
0	10799	18.75	0
0	10830	18.8	1
0	10831	18.8	2
0	10832	18.8	1
0	10833	18.8	0
0	10835	18.8	1
0	10836	18.8	2
0	10837	18.8	1
0	10838	18.8	0
0	10857	18.85	1
0	10858	18.85	2
0	10859	18.85	1
0	10860	18.85	0
0	10891	18.9	1
0	10892	18.9	2
0	10893	18.9	1
0	10894	18.9	0
0	10896	18.9	1
0	10897	18.9	2
0	10898	18.9	1
0	10899	18.9	0
0	10918	18.95	1
0	10919	18.95	2
0	10920	18.95	1
0	10921	18.95	0
0	10934	19	1
0	10935	19	2
0	10936	19	1
0	10937	19	0
0	10939	19	1
0	10940	19	2
0	10941	19	1
0	10942	19	0
0	10996	19.05	1
0	10997	19.05	2
0	10998	19.05	1
0	10999	19.05	0
0	11016	19.1	1
0	11017	19.1	2
0	11018	19.1	1
0	11019	19.1	0
0	11021	19.1	1
0	11022	19.1	2
0	11023	19.1	1
0	11024	19.1	0
0	11048	19.15	1
0	11049	19.15	2
0	11050	19.15	1
0	11051	19.15	0
0	11110	19.2	1
0	11111	19.2	2
0	11112	19.2	1
0	11113	19.2	0
0	11115	19.2	1
0	11116	19.2	2
0	11117	19.2	1
0	11118	19.2	0
0	11143	19.25	1
0	11144	19.25	2
0	11145	19.25	1
0	11146	19.25	0
0	11159	19.3	1
0	11160	19.3	2
0	11161	19.3	1
0	11162	19.3	0
0	11164	19.3	1
0	11165	19.3	2
0	11166	19.3	1
0	11167	19.3	0
0	11204	19.35	1
0	11205	19.35	2
0	11206	19.35	1
0	11207	19.35	0
0	11220	19.4	1
0	11221	19.4	2
0	11222	19.4	1
0	11223	19.4	0
0	11225	19.4	1
0	11226	19.4	2
0	11227	19.4	1
0	11228	19.4	0
0	11265	19.45	1
0	11266	19.45	2
0	11267	19.45	1
0	11268	19.45	0
0	11281	19.5	1
0	11282	19.5	2
0	11283	19.5	1
0	11284	19.5	0
0	11286	19.5	1
0	11287	19.5	2
0	11288	19.5	1
0	11289	19.5	0
0	11308	19.55	1
0	11309	19.55	2
0	11310	19.55	1
0	11311	19.55	0
0	11359	19.6	1
0	11360	19.6	2
0	11361	19.6	1
0	11362	19.6	0
0	11364	19.6	1
0	11365	19.6	2
0	11366	19.6	1
0	11367	19.6	0
0	11386	19.65	1
0	11387	19.65	2
0	11388	19.65	1
0	11389	19.65	0
0	11402	19.7	1
0	11403	19.7	2
0	11404	19.7	1
0	11405	19.7	0
0	11407	19.7	1
0	11408	19.7	2
0	11409	19.7	1
0	11410	19.7	0
0	11447	19.75	1
0	11448	19.75	2
0	11449	19.75	1
0	11450	19.75	0
0	11463	19.8	1
0	11464	19.8	2
0	11465	19.8	1
0	11466	19.8	0
0	11468	19.8	1
0	11469	19.8	2
0	11470	19.8	1
0	11471	19.8	0
0	11490	19.85	1
0	11491	19.85	2
0	11492	19.85	1
0	11493	19.85	0
0	11524	19.9	1
0	11525	19.9	2
0	11526	19.9	1
0	11527	19.9	0
0	11529	19.9	1
0	11530	19.9	2
0	11531	19.9	1
0	11532	19.9	0
0	11551	19.95	1
0	11552	19.95	2
0	11553	19.95	1
0	11554	19.95	0
0	11586	20	1
0	11587	20	2
0	11588	20	1
0	11589	20	0
0	11591	20	1
0	11592	20	2
0	11593	20	1
0	11594	20	0
0	11613	20.05	1
0	11614	20.05	2
0	11615	20.05	1
0	11616	20.05	0
0	11633	20.1	1
0	11634	20.1	2
0	11635	20.1	1
0	11636	20.1	0
0	11638	20.1	1
0	11639	20.1	2
0	11640	20.1	1
0	11641	20.1	0
0	11697	20.15	1
0	11698	20.15	2
0	11699	20.15	1
0	11700	20.15	0
0	11713	20.2	1
0	11714	20.2	2
0	11715	20.2	1
0	11716	20.2	0
0	11718	20.2	1
0	11719	20.2	2
0	11720	20.2	1
0	11721	20.2	0
0	11740	20.25	1
0	11741	20.25	2
0	11742	20.25	1
0	11743	20.25	0
0	11791	20.3	1
0	11792	20.3	2
0	11793	20.3	1
0	11794	20.3	0
0	11796	20.3	1
0	11797	20.3	2
0	11798	20.3	1
0	11799	20.3	0
0	11818	20.35	1
0	11819	20.35	2
0	11820	20.35	1
0	11821	20.35	0
0	11834	20.4	1
0	11835	20.4	2
0	11836	20.4	1
0	11837	20.4	0
0	11839	20.4	1
0	11840	20.4	2
0	11841	20.4	1
0	11842	20.4	0
0	11879	20.45	1
0	11880	20.45	2
0	11881	20.45	1
0	11882	20.45	0
0	11895	20.5	1
0	11896	20.5	2
0	11897	20.5	1
0	11898	20.5	0
0	11900	20.5	1
0	11901	20.5	2
0	11902	20.5	1
0	11903	20.5	0
0	11940	20.55	1
0	11941	20.55	2
0	11942	20.55	1
0	11943	20.55	0
0	11956	20.6	1
0	11957	20.6	2
0	11958	20.6	1
0	11959	20.6	0
0	11961	20.6	1
0	11962	20.6	2
0	11963	20.6	1
0	11964	20.6	0
0	11983	20.65	1
0	11984	20.65	2
0	11985	20.65	1
0	11986	20.65	0
0	12034	20.7	1
0	12035	20.7	2
0	12036	20.7	1
0	12037	20.7	0
0	12039	20.7	1
0	12040	20.7	2
0	12041	20.7	1
0	12042	20.7	0
0	12061	20.75	1
0	12062	20.75	2
0	12063	20.75	1
0	12064	20.75	0
0	12077	20.8	1
0	12078	20.8	2
0	12079	20.8	1
0	12080	20.8	0
0	12082	20.8	1
0	12083	20.8	2
0	12084	20.8	1
0	12085	20.8	0
0	12122	20.85	1
0	12123	20.85	2
0	12124	20.85	1
0	12125	20.85	0
0	12138	20.9	1
0	12139	20.9	2
0	12140	20.9	1
0	12141	20.9	0
0	12143	20.9	1
0	12144	20.9	2
0	12145	20.9	1
0	12146	20.9	0
0	12165	20.95	1
0	12166	20.95	2
0	12167	20.95	1
0	12168	20.95	0
0	12199	21	1
0	12200	21	2
0	12201	21	1
0	12202	21	0
0	12204	21	1
0	12205	21	2
0	12206	21	1
0	12207	21	0
0	12226	21.05	1
0	12227	21.05	2
0	12228	21.05	1
0	12229	21.05	0
0	12251	21.1	1
0	12252	21.1	2
0	12253	21.1	1
0	12254	21.1	0
0	12256	21.1	1
0	12257	21.1	2
0	12258	21.1	1
0	12259	21.1	0
0	12283	21.15	1
0	12284	21.15	2
0	12285	21.15	1
0	12286	21.15	0
0	12299	21.2	1
0	12300	21.2	2
0	12301	21.2	1
0	12302	21.2	0
0	12304	21.2	1
0	12305	21.2	2
0	12306	21.2	1
0	12307	21.2	0
0	12326	21.25	1
0	12327	21.25	2
0	12328	21.25	1
0	12329	21.25	0
0	12342	21.3	1
0	12343	21.3	2
0	12344	21.3	1
0	12345	21.3	0
0	12347	21.3	1
0	12348	21.3	2
0	12349	21.3	1
0	12350	21.3	0
0	12369	21.35	1
0	12370	21.35	2
0	12371	21.35	1
0	12372	21.35	0
0	12420	21.4	1
0	12421	21.4	2
0	12422	21.4	1
0	12423	21.4	0
0	12425	21.4	1
0	12426	21.4	2
0	12427	21.4	1
0	12428	21.4	0
0	12447	21.45	1
0	12448	21.45	2
0	12449	21.45	1
0	12450	21.45	0
0	12463	21.5	1
0	12464	21.5	2
0	12465	21.5	1
0	12466	21.5	0
0	12468	21.5	1
0	12469	21.5	2
0	12470	21.5	1
0	12471	21.5	0
0	12508	21.55	1
0	12509	21.55	2
0	12510	21.55	1
0	12511	21.55	0
0	12524	21.6	1
0	12525	21.6	2
0	12526	21.6	1
0	12527	21.6	0
0	12529	21.6	1
0	12530	21.6	2
0	12531	21.6	1
0	12532	21.6	0
0	12551	21.65	1
0	12552	21.65	2
0	12553	21.65	1
0	12554	21.65	0
0	12567	21.7	1
0	12568	21.7	2
0	12569	21.7	1
0	12570	21.7	0
0	12572	21.7	1
0	12573	21.7	2
0	12574	21.7	1
0	12575	21.7	0
0	12594	21.75	1
0	12595	21.75	2
0	12596	21.75	1
0	12597	21.75	0
0	12610	21.8	1
0	12611	21.8	2
0	12612	21.8	1
0	12613	21.8	0
0	12615	21.8	1
0	12616	21.8	2
0	12617	21.8	1
0	12618	21.8	0
0	12637	21.85	1
0	12638	21.85	2
0	12639	21.85	1
0	12640	21.85	0
0	12653	21.9	1
0	12654	21.9	2
0	12655	21.9	1
0	12656	21.9	0
0	12658	21.9	1
0	12659	21.9	2
0	12660	21.9	1
0	12661	21.9	0
0	12698	21.95	1
0	12699	21.95	2
0	12700	21.95	1
0	12701	21.95	0
0	12717	22	1
0	12718	22	2
0	12719	22	1
0	12720	22	0
0	12722	22	1
0	12723	22	2
0	12724	22	1
0	12725	22	0
0	12744	22.05	1
0	12745	22.05	2
0	12746	22.05	1
0	12747	22.05	0
0	12782	22.1	1
0	12783	22.1	2
0	12784	22.1	1
0	12785	22.1	0
0	12787	22.1	1
0	12788	22.1	2
0	12789	22.1	1
0	12790	22.1	0
0	12814	22.15	1
0	12815	22.15	2
0	12816	22.15	1
0	12817	22.15	0
0	12830	22.2	1
0	12831	22.2	2
0	12832	22.2	1
0	12833	22.2	0
0	12835	22.2	1
0	12836	22.2	2
0	12837	22.2	1
0	12838	22.2	0
0	12857	22.25	1
0	12858	22.25	2
0	12859	22.25	1
0	12860	22.25	0
0	12878	22.3	1
0	12879	22.3	2
0	12880	22.3	1
0	12881	22.3	0
0	12883	22.3	1
0	12884	22.3	2
0	12885	22.3	1
0	12886	22.3	0
0	12905	22.35	1
0	12906	22.35	2
0	12907	22.35	1
0	12908	22.35	0
0	12921	22.4	1
0	12922	22.4	2
0	12923	22.4	1
0	12924	22.4	0
0	12926	22.4	1
0	12927	22.4	2
0	12928	22.4	1
0	12929	22.4	0
0	12948	22.45	1
0	12949	22.45	2
0	12950	22.45	1
0	12951	22.45	0
0	12987	22.5	1
0	12988	22.5	2
0	12989	22.5	1
0	12990	22.5	0
0	12992	22.5	1
0	12993	22.5	2
0	12994	22.5	1
0	12995	22.5	0
0	13014	22.55	1
0	13015	22.55	2
0	13016	22.55	1
0	13017	22.55	0
0	13030	22.6	1
0	13031	22.6	2
0	13032	22.6	1
0	13033	22.6	0
0	13035	22.6	1
0	13036	22.6	2
0	13037	22.6	1
0	13038	22.6	0
0	13071	22.65	1
0	13072	22.65	2
0	13073	22.65	1
0	13074	22.65	0
0	13105	22.7	1
0	13106	22.7	2
0	13107	22.7	1
0	13108	22.7	0
0	13110	22.7	1
0	13111	22.7	2
0	13112	22.7	1
0	13113	22.7	0
0	13132	22.75	1
0	13133	22.75	2
0	13134	22.75	1
0	13135	22.75	0
0	13148	22.8	1
0	13149	22.8	2
0	13150	22.8	1
0	13151	22.8	0
0	13153	22.8	1
0	13154	22.8	2
0	13155	22.8	1
0	13156	22.8	0
0	13221	22.85	1
0	13222	22.85	2
0	13223	22.85	1
0	13224	22.85	0
0	13243	22.9	1
0	13244	22.9	2
0	13245	22.9	1
0	13246	22.9	0
0	13248	22.9	1
0	13249	22.9	2
0	13250	22.9	1
0	13251	22.9	0
0	13270	22.95	1
0	13271	22.95	2
0	13272	22.95	1
0	13273	22.95	0
0	13286	23	1
0	13287	23	2
0	13288	23	1
0	13289	23	0
0	13291	23	1
0	13292	23	2
0	13293	23	1
0	13294	23	0
0	13348	23.05	1
0	13349	23.05	2
0	13350	23.05	1
0	13351	23.05	0
0	13368	23.1	1
0	13369	23.1	2
0	13370	23.1	1
0	13371	23.1	0
0	13373	23.1	1
0	13374	23.1	2
0	13375	23.1	1
0	13376	23.1	0
0	13400	23.15	1
0	13401	23.15	2
0	13402	23.15	1
0	13403	23.15	0
0	13434	23.2	1
0	13435	23.2	2
0	13436	23.2	1
0	13437	23.2	0
0	13439	23.2	1
0	13440	23.2	2
0	13441	23.2	1
0	13442	23.2	0
0	13479	23.25	1
0	13480	23.25	2
0	13481	23.25	1
0	13482	23.25	0
0	13495	23.3	1
0	13496	23.3	2
0	13497	23.3	1
0	13498	23.3	0
0	13500	23.3	1
0	13501	23.3	2
0	13502	23.3	1
0	13503	23.3	0
0	13522	23.35	1
0	13523	23.35	2
0	13524	23.35	1
0	13525	23.35	0
0	13573	23.4	1
0	13574	23.4	2
0	13575	23.4	1
0	13576	23.4	0
0	13578	23.4	1
0	13579	23.4	2
0	13580	23.4	1
0	13581	23.4	0
0	13600	23.45	1
0	13601	23.45	2
0	13602	23.45	1
0	13603	23.45	0
0	13616	23.5	1
0	13617	23.5	2
0	13618	23.5	1
0	13619	23.5	0
0	13621	23.5	1
0	13622	23.5	2
0	13623	23.5	1
0	13624	23.5	0
0	13643	23.55	1
0	13644	23.55	2
0	13645	23.55	1
0	13646	23.55	0
0	13694	23.6	1
0	13695	23.6	2
0	13696	23.6	1
0	13697	23.6	0
0	13699	23.6	1
0	13700	23.6	2
0	13701	23.6	1
0	13702	23.6	0
0	13721	23.65	1
0	13722	23.65	2
0	13723	23.65	1
0	13724	23.65	0
0	13737	23.7	1
0	13738	23.7	2
0	13739	23.7	1
0	13740	23.7	0
0	13742	23.7	1
0	13743	23.7	2
0	13744	23.7	1
0	13745	23.7	0
0	13782	23.75	1
0	13783	23.75	2
0	13784	23.75	1
0	13785	23.75	0
0	13816	23.8	1
0	13817	23.8	2
0	13818	23.8	1
0	13819	23.8	0
0	13821	23.8	1
0	13822	23.8	2
0	13823	23.8	1
0	13824	23.8	0
0	13843	23.85	1
0	13844	23.85	2
0	13845	23.85	1
0	13846	23.85	0
0	13859	23.9	1
0	13860	23.9	2
0	13861	23.9	1
0	13862	23.9	0
0	13864	23.9	1
0	13865	23.9	2
0	13866	23.9	1
0	13867	23.9	0
0	13904	23.95	1
0	13905	23.95	2
0	13906	23.95	1
0	13907	23.95	0
0	13920	24	1
0	13921	24	2
0	13922	24	1
0	13923	24	0
0	13925	24	1
0	13926	24	2
0	13927	24	1
0	13928	24	0
0	13947	24.05	1
0	13948	24.05	2
0	13949	24.05	1
0	13950	24.05	0
0	13967	24.1	1
0	13968	24.1	2
0	13969	24.1	1
0	13970	24.1	0
0	13972	24.1	1
0	13973	24.1	2
0	13974	24.1	1
0	13975	24.1	0
0	14034	24.15	1
0	14035	24.15	2
0	14036	24.15	1
0	14037	24.15	0
0	14050	24.2	1
0	14051	24.2	2
0	14052	24.2	1
0	14053	24.2	0
0	14055	24.2	1
0	14056	24.2	2
0	14057	24.2	1
0	14058	24.2	0
0	14077	24.25	1
0	14078	24.25	2
0	14079	24.25	1
0	14080	24.25	0
0	14111	24.3	1
0	14112	24.3	2
0	14113	24.3	1
0	14114	24.3	0
0	14116	24.3	1
0	14117	24.3	2
0	14118	24.3	1
0	14119	24.3	0
0	14156	24.35	1
0	14157	24.35	2
0	14158	24.35	1
0	14159	24.35	0
0	14172	24.4	1
0	14173	24.4	2
0	14174	24.4	1
0	14175	24.4	0
0	14177	24.4	1
0	14178	24.4	2
0	14179	24.4	1
0	14180	24.4	0
0	14199	24.45	1
0	14200	24.45	2
0	14201	24.45	1
0	14202	24.45	0
0	14250	24.5	1
0	14251	24.5	2
0	14252	24.5	1
0	14253	24.5	0
0	14255	24.5	1
0	14256	24.5	2
0	14257	24.5	1
0	14258	24.5	0
0	14277	24.55	1
0	14278	24.55	2
0	14279	24.55	1
0	14280	24.55	0
0	14293	24.6	1
0	14294	24.6	2
0	14295	24.6	1
0	14296	24.6	0
0	14298	24.6	1
0	14299	24.6	2
0	14300	24.6	1
0	14301	24.6	0
0	14320	24.65	1
0	14321	24.65	2
0	14322	24.65	1
0	14323	24.65	0
0	14354	24.7	1
0	14355	24.7	2
0	14356	24.7	1
0	14357	24.7	0
0	14359	24.7	1
0	14360	24.7	2
0	14361	24.7	1
0	14362	24.7	0
0	14381	24.75	1
0	14382	24.75	2
0	14383	24.75	1
0	14384	24.75	0
0	14397	24.8	1
0	14398	24.8	2
0	14399	24.8	1
0	14400	24.8	0
0	14402	24.8	1
0	14403	24.8	2
0	14404	24.8	1
0	14405	24.8	0
0	14429	24.85	1
0	14430	24.85	2
0	14431	24.85	1
0	14432	24.85	0
0	14463	24.9	1
0	14464	24.9	2
0	14465	24.9	1
0	14466	24.9	0
0	14468	24.9	1
0	14469	24.9	2
0	14470	24.9	1
0	14471	24.9	0
0	14490	24.95	1
0	14491	24.95	2
0	14492	24.95	1
0	14493	24.95	0
0	14507	25	1
0	14508	25	2
0	14509	25	1
0	14510	25	0
0	14512	25	1
0	14513	25	2
0	14514	25	1
0	14515	25	0
0	14552	25.05	1
0	14553	25.05	2
0	14554	25.05	1
0	14555	25.05	0
0	14572	25.1	1
0	14573	25.1	2
0	14574	25.1	1
0	14575	25.1	0
0	14577	25.1	1
0	14578	25.1	2
0	14579	25.1	1
0	14580	25.1	0
0	14605	25.15	1
0	14606	25.15	2
0	14607	25.15	1
0	14608	25.15	0
0	14621	25.2	1
0	14622	25.2	2
0	14623	25.2	1
0	14624	25.2	0
0	14626	25.2	1
0	14627	25.2	2
0	14628	25.2	1
0	14629	25.2	0
0	14648	25.25	1
0	14649	25.25	2
0	14650	25.25	1
0	14651	25.25	0
0	14664	25.3	1
0	14665	25.3	2
0	14666	25.3	1
0	14667	25.3	0
0	14669	25.3	1
0	14670	25.3	2
0	14671	25.3	1
0	14672	25.3	0
0	14691	25.35	1
0	14692	25.35	2
0	14693	25.35	1
0	14694	25.35	0
0	14707	25.4	1
0	14708	25.4	2
0	14709	25.4	1
0	14710	25.4	0
0	14712	25.4	1
0	14713	25.4	2
0	14714	25.4	1
0	14715	25.4	0
0	14752	25.45	1
0	14753	25.45	2
0	14754	25.45	1
0	14755	25.45	0
0	14768	25.5	1
0	14769	25.5	2
0	14770	25.5	1
0	14771	25.5	0
0	14773	25.5	1
0	14774	25.5	2
0	14775	25.5	1
0	14776	25.5	0
0	14795	25.55	1
0	14796	25.55	2
0	14797	25.55	1
0	14798	25.55	0
0	14846	25.6	1
0	14847	25.6	2
0	14848	25.6	1
0	14849	25.6	0
0	14851	25.6	1
0	14852	25.6	2
0	14853	25.6	1
0	14854	25.6	0
0	14873	25.65	1
0	14874	25.65	2
0	14875	25.65	1
0	14876	25.65	0
0	14889	25.7	1
0	14890	25.7	2
0	14891	25.7	1
0	14892	25.7	0
0	14894	25.7	1
0	14895	25.7	2
0	14896	25.7	1
0	14897	25.7	0
0	14916	25.75	1
0	14917	25.75	2
0	14918	25.75	1
0	14919	25.75	0
0	14932	25.8	1
0	14933	25.8	2
0	14934	25.8	1
0	14935	25.8	0
0	14937	25.8	1
0	14938	25.8	2
0	14939	25.8	1
0	14940	25.8	0
0	14959	25.85	1
0	14960	25.85	2
0	14961	25.85	1
0	14962	25.85	0
0	14975	25.9	1
0	14976	25.9	2
0	14977	25.9	1
0	14978	25.9	0
0	14980	25.9	1
0	14981	25.9	2
0	14982	25.9	1
0	14983	25.9	0
0	15002	25.95	1
0	15003	25.95	2
0	15004	25.95	1
0	15005	25.95	0
0	15036	26	1
0	15037	26	2
0	15038	26	1
0	15039	26	0
0	15041	26	1
0	15042	26	2
0	15043	26	1
0	15044	26	0
0	15063	26.05	1
0	15064	26.05	2
0	15065	26.05	1
0	15066	26.05	0
0	15083	26.1	1
0	15084	26.1	2
0	15085	26.1	1
0	15086	26.1	0
0	15088	26.1	1
0	15089	26.1	2
0	15090	26.1	1
0	15091	26.1	0
0	15151	26.15	1
0	15152	26.15	2
0	15153	26.15	1
0	15154	26.15	0
0	15167	26.2	1
0	15168	26.2	2
0	15169	26.2	1
0	15170	26.2	0
0	15172	26.2	1
0	15173	26.2	2
0	15174	26.2	1
0	15175	26.2	0
0	15194	26.25	1
0	15195	26.25	2
0	15196	26.25	1
0	15197	26.25	0
0	15224	26.3	1
0	15225	26.3	2
0	15226	26.3	1
0	15227	26.3	0
0	15229	26.3	1
0	15230	26.3	2
0	15231	26.3	1
0	15232	26.3	0
0	15251	26.35	1
0	15252	26.35	2
0	15253	26.35	1
0	15254	26.35	0
0	15267	26.4	1
0	15268	26.4	2
0	15269	26.4	1
0	15270	26.4	0
0	15272	26.4	1
0	15273	26.4	2
0	15274	26.4	1
0	15275	26.4	0
0	15312	26.45	1
0	15313	26.45	2
0	15314	26.45	1
0	15315	26.45	0
0	15328	26.5	1
0	15329	26.5	2
0	15330	26.5	1
0	15331	26.5	0
0	15333	26.5	1
0	15334	26.5	2
0	15335	26.5	1
0	15336	26.5	0
0	15373	26.55	1
0	15374	26.55	2
0	15375	26.55	1
0	15376	26.55	0
0	15389	26.6	1
0	15390	26.6	2
0	15391	26.6	1
0	15392	26.6	0
0	15394	26.6	1
0	15395	26.6	2
0	15396	26.6	1
0	15397	26.6	0
0	15416	26.65	1
0	15417	26.65	2
0	15418	26.65	1
0	15419	26.65	0
0	15446	26.7	1
0	15447	26.7	2
0	15448	26.7	1
0	15449	26.7	0
0	15451	26.7	1
0	15452	26.7	2
0	15453	26.7	1
0	15454	26.7	0
0	15473	26.75	1
0	15474	26.75	2
0	15475	26.75	1
0	15476	26.75	0
0	15489	26.8	1
0	15490	26.8	2
0	15491	26.8	1
0	15492	26.8	0
0	15494	26.8	1
0	15495	26.8	2
0	15496	26.8	1
0	15497	26.8	0
0	15562	26.85	1
0	15563	26.85	2
0	15564	26.85	1
0	15565	26.85	0
0	15581	26.9	1
0	15582	26.9	2
0	15583	26.9	1
0	15584	26.9	0
0	15586	26.9	1
0	15587	26.9	2
0	15588	26.9	1
0	15589	26.9	0
0	15608	26.95	1
0	15609	26.95	2
0	15610	26.95	1
0	15611	26.95	0
0	15645	27	1
0	15646	27	2
0	15647	27	1
0	15648	27	0
0	15650	27	1
0	15651	27	2
0	15652	27	1
0	15653	27	0
0	15672	27.05	1
0	15673	27.05	2
0	15674	27.05	1
0	15675	27.05	0
0	15710	27.1	1
0	15711	27.1	2
0	15712	27.1	1
0	15713	27.1	0
0	15715	27.1	1
0	15716	27.1	2
0	15717	27.1	1
0	15718	27.1	0
0	15743	27.15	1
0	15744	27.15	2
0	15745	27.15	1
0	15746	27.15	0
0	15759	27.2	1
0	15760	27.2	2
0	15761	27.2	1
0	15762	27.2	0
0	15764	27.2	1
0	15765	27.2	2
0	15766	27.2	1
0	15767	27.2	0
0	15821	27.25	1
0	15822	27.25	2
0	15823	27.25	1
0	15824	27.25	0
0	15837	27.3	1
0	15838	27.3	2
0	15839	27.3	1
0	15840	27.3	0
0	15842	27.3	1
0	15843	27.3	2
0	15844	27.3	1
0	15845	27.3	0
0	15864	27.35	1
0	15865	27.35	2
0	15866	27.35	1
0	15867	27.35	0
0	15926	27.4	1
0	15927	27.4	2
0	15928	27.4	1
0	15929	27.4	0
0	15931	27.4	1
0	15932	27.4	2
0	15933	27.4	1
0	15934	27.4	0
0	15959	27.45	1
0	15960	27.45	2
0	15961	27.45	1
0	15962	27.45	0
0	15975	27.5	1
0	15976	27.5	2
0	15977	27.5	1
0	15978	27.5	0
0	15980	27.5	1
0	15981	27.5	2
0	15982	27.5	1
0	15983	27.5	0
0	16020	27.55	1
0	16021	27.55	2
0	16022	27.55	1
0	16023	27.55	0
0	16036	27.6	1
0	16037	27.6	2
0	16038	27.6	2
0	16039	27.6	1
0	16041	27.6	1
0	16042	27.6	2
0	16043	27.6	2
0	16044	27.6	1
0	16079	27.65	1
0	16080	27.65	2
0	16081	27.65	2
0	16082	27.65	1
0	16095	27.7	1
0	16096	27.7	2
0	16097	27.7	2
0	16098	27.7	1
0	16100	27.7	1
0	16101	27.7	2
0	16102	27.7	2
0	16103	27.7	1
0	16124	27.75	1
0	16125	27.75	2
0	16126	27.75	2
0	16127	27.75	1
0	16145	27.8	1
0	16146	27.8	2
0	16147	27.8	2
0	16148	27.8	1
0	16150	27.8	1
0	16151	27.8	2
0	16152	27.8	2
0	16153	27.8	1
0	16174	27.85	1
0	16175	27.85	2
0	16176	27.85	2
0	16177	27.85	1
0	16190	27.9	1
0	16191	27.9	2
0	16192	27.9	2
0	16193	27.9	1
0	16195	27.9	1
0	16196	27.9	2
0	16197	27.9	2
0	16198	27.9	1
0	16237	27.95	1
0	16238	27.95	2
0	16239	27.95	2
0	16240	27.95	1
0	16253	28	1
0	16254	28	2
0	16255	28	2
0	16256	28	1
0	16258	28	1
0	16259	28	2
0	16260	28	2
0	16261	28	1
0	16282	28.05	1
0	16283	28.05	2
0	16284	28.05	2
0	16285	28.05	1
0	16320	28.1	1
0	16321	28.1	2
0	16322	28.1	2
0	16323	28.1	1
0	16325	28.1	1
0	16326	28.1	2
0	16327	28.1	2
0	16328	28.1	1
0	16355	28.15	1
0	16356	28.15	2
0	16357	28.15	2
0	16358	28.15	1
0	16371	28.2	1
0	16372	28.2	2
0	16373	28.2	2
0	16374	28.2	1
0	16376	28.2	1
0	16377	28.2	2
0	16378	28.2	2
0	16379	28.2	1
0	16400	28.25	1
0	16401	28.25	2
0	16402	28.25	2
0	16403	28.25	1
0	16416	28.3	1
0	16417	28.3	2
0	16418	28.3	2
0	16419	28.3	1
0	16421	28.3	1
0	16422	28.3	2
0	16423	28.3	2
0	16424	28.3	1
0	16445	28.35	1
0	16446	28.35	2
0	16447	28.35	2
0	16448	28.35	1
0	16461	28.4	1
0	16462	28.4	2
0	16463	28.4	2
0	16464	28.4	1
0	16466	28.4	1
0	16467	28.4	2
0	16468	28.4	2
0	16469	28.4	1
0	16490	28.45	1
0	16491	28.45	2
0	16492	28.45	2
0	16493	28.45	1
0	16541	28.5	1
0	16542	28.5	2
0	16543	28.5	2
0	16544	28.5	1
0	16546	28.5	1
0	16547	28.5	2
0	16548	28.5	2
0	16549	28.5	1
0	16570	28.55	1
0	16571	28.55	2
0	16572	28.55	2
0	16573	28.55	1
0	16586	28.6	1
0	16587	28.6	2
0	16588	28.6	2
0	16589	28.6	1
0	16591	28.6	1
0	16592	28.6	2
0	16593	28.6	2
0	16594	28.6	1
0	16633	28.65	1
0	16634	28.65	2
0	16635	28.65	2
0	16636	28.65	1
0	16659	28.7	1
0	16660	28.7	2
0	16661	28.7	2
0	16662	28.7	1
0	16664	28.7	1
0	16665	28.7	2
0	16666	28.7	2
0	16667	28.7	1
0	16688	28.75	1
0	16689	28.75	2
0	16690	28.75	2
0	16691	28.75	1
0	16704	28.8	1
0	16705	28.8	2
0	16706	28.8	2
0	16707	28.8	1
0	16709	28.8	1
0	16710	28.8	2
0	16711	28.8	2
0	16712	28.8	1
0	16733	28.85	1
0	16734	28.85	2
0	16735	28.85	2
0	16736	28.85	1
0	16749	28.9	1
0	16750	28.9	2
0	16751	28.9	2
0	16752	28.9	1
0	16754	28.9	1
0	16755	28.9	2
0	16756	28.9	2
0	16757	28.9	1
0	16778	28.95	1
0	16779	28.95	2
0	16780	28.95	2
0	16781	28.95	1
0	16794	29	1
0	16795	29	2
0	16796	29	2
0	16797	29	1
0	16799	29	1
0	16800	29	2
0	16801	29	2
0	16802	29	1
0	16841	29.05	1
0	16842	29.05	2
0	16843	29.05	2
0	16844	29.05	1
0	16861	29.1	1
0	16862	29.1	2
0	16863	29.1	2
0	16864	29.1	1
0	16866	29.1	1
0	16867	29.1	2
0	16868	29.1	2
0	16869	29.1	1
0	16896	29.15	1
0	16897	29.15	2
0	16898	29.15	2
0	16899	29.15	1
0	16917	29.2	1
0	16918	29.2	2
0	16919	29.2	2
0	16920	29.2	1
0	16922	29.2	1
0	16923	29.2	2
0	16924	29.2	2
0	16925	29.2	1
0	16964	29.25	1
0	16965	29.25	2
0	16966	29.25	2
0	16967	29.25	1
0	16980	29.3	1
0	16981	29.3	2
0	16982	29.3	2
0	16983	29.3	1
0	16985	29.3	1
0	16986	29.3	2
0	16987	29.3	2
0	16988	29.3	1
0	17009	29.35	1
0	17010	29.35	2
0	17011	29.35	2
0	17012	29.35	1
0	17071	29.4	1
0	17072	29.4	2
0	17073	29.4	2
0	17074	29.4	1
0	17076	29.4	1
0	17077	29.4	2
0	17078	29.4	2
0	17079	29.4	1
0	17106	29.45	1
0	17107	29.45	2
0	17108	29.45	2
0	17109	29.45	1
0	17122	29.5	1
0	17123	29.5	2
0	17124	29.5	2
0	17125	29.5	1
0	17127	29.5	1
0	17128	29.5	2
0	17129	29.5	2
0	17130	29.5	1
0	17151	29.55	1
0	17152	29.55	2
0	17153	29.55	2
0	17154	29.55	1
0	17167	29.6	1
0	17168	29.6	2
0	17169	29.6	2
0	17170	29.6	1
0	17172	29.6	1
0	17173	29.6	2
0	17174	29.6	2
0	17175	29.6	1
0	17196	29.65	1
0	17197	29.65	2
0	17198	29.65	2
0	17199	29.65	1
0	17212	29.7	1
0	17213	29.7	2
0	17214	29.7	2
0	17215	29.7	1
0	17217	29.7	1
0	17218	29.7	2
0	17219	29.7	2
0	17220	29.7	1
0	17241	29.75	1
0	17242	29.75	2
0	17243	29.75	2
0	17244	29.75	1
0	17275	29.8	1
0	17276	29.8	2
0	17277	29.8	2
0	17278	29.8	1
0	17280	29.8	1
0	17281	29.8	2
0	17282	29.8	2
0	17283	29.8	1
0	17304	29.85	1
0	17305	29.85	2
0	17306	29.85	2
0	17307	29.85	1
0	17320	29.9	1
0	17321	29.9	2
0	17322	29.9	2
0	17323	29.9	1
0	17325	29.9	1
0	17326	29.9	2
0	17327	29.9	2
0	17328	29.9	1
0	17367	29.95	1
0	17368	29.95	2
0	17369	29.95	2
0	17370	29.95	1
0	17384	30	1
0	17385	30	2
0	17386	30	2
0	17387	30	1
0	17389	30	1
0	17390	30	2
0	17391	30	2
0	17392	30	1
0	17413	30.05	1
0	17414	30.05	2
0	17415	30.05	2
0	17416	30.05	1
0	17433	30.1	1
0	17434	30.1	2
0	17435	30.1	2
0	17436	30.1	1
0	17438	30.1	1
0	17439	30.1	2
0	17440	30.1	2
0	17441	30.1	1
0	17468	30.15	1
0	17469	30.15	2
0	17470	30.15	2
0	17471	30.15	1
0	17484	30.2	1
0	17485	30.2	2
0	17486	30.2	2
0	17487	30.2	1
0	17489	30.2	1
0	17490	30.2	2
0	17491	30.2	2
0	17492	30.2	1
0	17513	30.25	1
0	17514	30.25	2
0	17515	30.25	2
0	17516	30.25	1
0	17539	30.3	1
0	17540	30.3	2
0	17541	30.3	2
0	17542	30.3	1
0	17544	30.3	1
0	17545	30.3	2
0	17546	30.3	2
0	17547	30.3	1
0	17586	30.35	1
0	17587	30.35	2
0	17588	30.35	2
0	17589	30.35	1
0	17602	30.4	1
0	17603	30.4	2
0	17604	30.4	2
0	17605	30.4	1
0	17607	30.4	1
0	17608	30.4	2
0	17609	30.4	2
0	17610	30.4	1
0	17631	30.45	1
0	17632	30.45	2
0	17633	30.45	2
0	17634	30.45	1
0	17679	30.5	1
0	17680	30.5	2
0	17681	30.5	2
0	17682	30.5	1
0	17684	30.5	1
0	17685	30.5	2
0	17686	30.5	2
0	17687	30.5	1
0	17708	30.55	1
0	17709	30.55	2
0	17710	30.55	2
0	17711	30.55	1
0	17724	30.6	1
0	17725	30.6	2
0	17726	30.6	2
0	17727	30.6	1
0	17729	30.6	1
0	17730	30.6	2
0	17731	30.6	2
0	17732	30.6	1
0	17796	30.65	1
0	17797	30.65	2
0	17798	30.65	2
0	17799	30.65	1
0	17818	30.7	1
0	17819	30.7	2
0	17820	30.7	2
0	17821	30.7	1
0	17823	30.7	1
0	17824	30.7	2
0	17825	30.7	2
0	17826	30.7	1
0	17847	30.75	1
0	17848	30.75	2
0	17849	30.75	2
0	17850	30.75	1
0	17881	30.8	1
0	17882	30.8	2
0	17883	30.8	2
0	17884	30.8	1
0	17886	30.8	1
0	17887	30.8	2
0	17888	30.8	2
0	17889	30.8	1
0	17910	30.85	1
0	17911	30.85	2
0	17912	30.85	2
0	17913	30.85	1
0	17944	30.9	1
0	17945	30.9	2
0	17946	30.9	2
0	17947	30.9	1
0	17949	30.9	1
0	17950	30.9	2
0	17951	30.9	2
0	17952	30.9	1
0	17973	30.95	1
0	17974	30.95	2
0	17975	30.95	2
0	17976	30.95	1
0	17989	31	1
0	17990	31	2
0	17991	31	2
0	17992	31	1
0	17994	31	1
0	17995	31	2
0	17996	31	2
0	17997	31	1
0	18053	31.05	1
0	18054	31.05	2
0	18055	31.05	2
0	18056	31.05	1
0	18073	31.1	1
0	18074	31.1	2
0	18075	31.1	2
0	18076	31.1	1
0	18078	31.1	1
0	18079	31.1	2
0	18080	31.1	2
0	18081	31.1	1
0	18108	31.15	1
0	18109	31.15	2
0	18110	31.15	2
0	18111	31.15	1
0	18164	31.2	1
0	18165	31.2	2
0	18166	31.2	2
0	18167	31.2	1
0	18169	31.2	1
0	18170	31.2	2
0	18171	31.2	2
0	18172	31.2	1
0	18193	31.25	1
0	18194	31.25	2
0	18195	31.25	2
0	18196	31.25	1
0	18209	31.3	1
0	18210	31.3	2
0	18211	31.3	2
0	18212	31.3	1
0	18214	31.3	1
0	18215	31.3	2
0	18216	31.3	2
0	18217	31.3	1
0	18252	31.35	1
0	18253	31.35	2
0	18254	31.35	2
0	18255	31.35	1
0	18268	31.4	1
0	18269	31.4	2
0	18270	31.4	2
0	18271	31.4	1
0	18273	31.4	1
0	18274	31.4	2
0	18275	31.4	2
0	18276	31.4	1
0	18315	31.45	1
0	18316	31.45	2
0	18317	31.45	2
0	18318	31.45	1
0	18331	31.5	1
0	18332	31.5	2
0	18333	31.5	2
0	18334	31.5	1
0	18336	31.5	1
0	18337	31.5	2
0	18338	31.5	2
0	18339	31.5	1
0	18360	31.55	1
0	18361	31.55	2
0	18362	31.55	2
0	18363	31.55	1
0	18411	31.6	1
0	18412	31.6	2
0	18413	31.6	2
0	18414	31.6	1
0	18416	31.6	1
0	18417	31.6	2
0	18418	31.6	2
0	18419	31.6	1
0	18440	31.65	1
0	18441	31.65	2
0	18442	31.65	2
0	18443	31.65	1
0	18456	31.7	1
0	18457	31.7	2
0	18458	31.7	2
0	18459	31.7	1
0	18461	31.7	1
0	18462	31.7	2
0	18463	31.7	2
0	18464	31.7	1
0	18520	31.75	1
0	18521	31.75	2
0	18522	31.75	2
0	18523	31.75	1
0	18536	31.8	1
0	18537	31.8	2
0	18538	31.8	2
0	18539	31.8	1
0	18541	31.8	1
0	18542	31.8	2
0	18543	31.8	2
0	18544	31.8	1
0	18565	31.85	1
0	18566	31.85	2
0	18567	31.85	2
0	18568	31.85	1
0	18618	31.9	1
0	18619	31.9	2
0	18620	31.9	2
0	18621	31.9	1
0	18623	31.9	1
0	18624	31.9	2
0	18625	31.9	2
0	18626	31.9	1
0	18647	31.95	1
0	18648	31.95	2
0	18649	31.95	2
0	18650	31.95	1
0	18684	32	1
0	18685	32	2
0	18686	32	2
0	18687	32	1
0	18689	32	1
0	18690	32	2
0	18691	32	2
0	18692	32	1
0	18713	32.05	1
0	18714	32.05	2
0	18715	32.05	2
0	18716	32.05	1
0	18733	32.1	1
0	18734	32.1	2
0	18735	32.1	2
0	18736	32.1	1
0	18738	32.1	1
0	18739	32.1	2
0	18740	32.1	2
0	18741	32.1	1
0	18803	32.15	1
0	18804	32.15	2
0	18805	32.15	2
0	18806	32.15	1
0	18819	32.2	1
0	18820	32.2	2
0	18821	32.2	2
0	18822	32.2	1
0	18824	32.2	1
0	18825	32.2	2
0	18826	32.2	2
0	18827	32.2	1
0	18848	32.25	1
0	18849	32.25	2
0	18850	32.25	2
0	18851	32.25	1
0	18878	32.3	1
0	18879	32.3	2
0	18880	32.3	2
0	18881	32.3	1
0	18883	32.3	1
0	18884	32.3	2
0	18885	32.3	2
0	18886	32.3	1
0	18907	32.35	1
0	18908	32.35	2
0	18909	32.35	2
0	18910	32.35	1
0	18928	32.4	1
0	18929	32.4	2
0	18930	32.4	2
0	18931	32.4	1
0	18933	32.4	1
0	18934	32.4	2
0	18935	32.4	2
0	18936	32.4	1
0	18975	32.45	1
0	18976	32.45	2
0	18977	32.45	2
0	18978	32.45	1
0	18991	32.5	1
0	18992	32.5	2
0	18993	32.5	2
0	18994	32.5	1
0	18996	32.5	1
0	18997	32.5	2
0	18998	32.5	2
0	18999	32.5	1
0	19038	32.55	1
0	19039	32.55	2
0	19040	32.55	2
0	19041	32.55	1
0	19054	32.6	1
0	19055	32.6	2
0	19056	32.6	2
0	19057	32.6	1
0	19059	32.6	1
0	19060	32.6	2
0	19061	32.6	2
0	19062	32.6	1
0	19083	32.65	1
0	19084	32.65	2
0	19085	32.65	2
0	19086	32.65	1
0	19117	32.7	1
0	19118	32.7	2
0	19119	32.7	2
0	19120	32.7	1
0	19122	32.7	1
0	19123	32.7	2
0	19124	32.7	2
0	19125	32.7	1
0	19146	32.75	1
0	19147	32.75	2
0	19148	32.75	2
0	19149	32.75	1
0	19162	32.8	1
0	19163	32.8	2
0	19164	32.8	2
0	19165	32.8	1
0	19167	32.8	1
0	19168	32.8	2
0	19169	32.8	2
0	19170	32.8	1
0	19214	32.85	1
0	19215	32.85	2
0	19216	32.85	2
0	19217	32.85	1
0	19230	32.9	1
0	19231	32.9	2
0	19232	32.9	2
0	19233	32.9	1
0	19235	32.9	1
0	19236	32.9	2
0	19237	32.9	2
0	19238	32.9	1
0	19259	32.95	1
0	19260	32.95	2
0	19261	32.95	2
0	19262	32.95	1
0	19293	33	1
0	19294	33	2
0	19295	33	2
0	19296	33	1
0	19298	33	1
0	19299	33	2
0	19300	33	2
0	19301	33	1
0	19322	33.05	1
0	19323	33.05	2
0	19324	33.05	2
0	19325	33.05	1
0	19360	33.1	1
0	19361	33.1	2
0	19362	33.1	2
0	19363	33.1	1
0	19365	33.1	1
0	19366	33.1	2
0	19367	33.1	2
0	19368	33.1	1
0	19395	33.15	1
0	19396	33.15	2
0	19397	33.15	2
0	19398	33.15	1
0	19411	33.2	1
0	19412	33.2	2
0	19413	33.2	2
0	19414	33.2	1
0	19416	33.2	1
0	19417	33.2	2
0	19418	33.2	2
0	19419	33.2	1
0	19475	33.25	1
0	19476	33.25	2
0	19477	33.25	2
0	19478	33.25	1
0	19491	33.3	1
0	19492	33.3	2
0	19493	33.3	2
0	19494	33.3	1
0	19496	33.3	1
0	19497	33.3	2
0	19498	33.3	2
0	19499	33.3	1
0	19520	33.35	1
0	19521	33.35	2
0	19522	33.35	2
0	19523	33.35	1
0	19541	33.4	1
0	19542	33.4	2
0	19543	33.4	2
0	19544	33.4	1
0	19546	33.4	1
0	19547	33.4	2
0	19548	33.4	2
0	19549	33.4	1
0	19575	33.45	1
0	19576	33.45	2
0	19577	33.45	2
0	19578	33.45	1
0	19591	33.5	1
0	19592	33.5	2
0	19593	33.5	2
0	19594	33.5	1
0	19596	33.5	1
0	19597	33.5	2
0	19598	33.5	2
0	19599	33.5	1
0	19620	33.55	1
0	19621	33.55	2
0	19622	33.55	2
0	19623	33.55	1
0	19636	33.6	1
0	19637	33.6	2
0	19638	33.6	2
0	19639	33.6	1
0	19641	33.6	1
0	19642	33.6	2
0	19643	33.6	2
0	19644	33.6	1
0	19683	33.65	1
0	19684	33.65	2
0	19685	33.65	2
0	19686	33.65	1
0	19699	33.7	1
0	19700	33.7	2
0	19701	33.7	2
0	19702	33.7	1
0	19704	33.7	1
0	19705	33.7	2
0	19706	33.7	2
0	19707	33.7	1
0	19728	33.75	1
0	19729	33.75	2
0	19730	33.75	2
0	19731	33.75	1
0	19762	33.8	1
0	19763	33.8	2
0	19764	33.8	2
0	19765	33.8	1
0	19767	33.8	1
0	19768	33.8	2
0	19769	33.8	2
0	19770	33.8	1
0	19791	33.85	1
0	19792	33.85	2
0	19793	33.85	2
0	19794	33.85	1
0	19807	33.9	1
0	19808	33.9	2
0	19809	33.9	2
0	19810	33.9	1
0	19812	33.9	1
0	19813	33.9	2
0	19814	33.9	2
0	19815	33.9	1
0	19836	33.95	1
0	19837	33.95	2
0	19838	33.95	2
0	19839	33.95	1
0	19857	34	1
0	19858	34	2
0	19859	34	2
0	19860	34	1
0	19862	34	1
0	19863	34	2
0	19864	34	2
0	19865	34	1
0	19886	34.05	1
0	19887	34.05	2
0	19888	34.05	2
0	19889	34.05	1
0	19906	34.1	1
0	19907	34.1	2
0	19908	34.1	2
0	19909	34.1	1
0	19911	34.1	1
0	19912	34.1	2
0	19913	34.1	2
0	19914	34.1	1
0	19941	34.15	1
0	19942	34.15	2
0	19943	34.15	2
0	19944	34.15	1
0	19975	34.2	1
0	19976	34.2	2
0	19977	34.2	2
0	19978	34.2	1
0	19980	34.2	1
0	19981	34.2	2
0	19982	34.2	2
0	19983	34.2	1
0	20004	34.25	1
0	20005	34.25	2
0	20006	34.25	2
0	20007	34.25	1
0	20020	34.3	1
0	20021	34.3	2
0	20022	34.3	2
0	20023	34.3	1
0	20025	34.3	1
0	20026	34.3	2
0	20027	34.3	2
0	20028	34.3	1
0	20084	34.35	1
0	20085	34.35	2
0	20086	34.35	2
0	20087	34.35	1
0	20100	34.4	1
0	20101	34.4	2
0	20102	34.4	2
0	20103	34.4	1
0	20105	34.4	1
0	20106	34.4	2
0	20107	34.4	2
0	20108	34.4	1
0	20129	34.45	1
0	20130	34.45	2
0	20131	34.45	2
0	20132	34.45	1
0	20145	34.5	1
0	20146	34.5	2
0	20147	34.5	2
0	20148	34.5	1
0	20150	34.5	1
0	20151	34.5	2
0	20152	34.5	2
0	20153	34.5	1
0	20174	34.55	1
0	20175	34.55	2
0	20176	34.55	2
0	20177	34.55	1
0	20208	34.6	1
0	20209	34.6	2
0	20210	34.6	2
0	20211	34.6	1
0	20213	34.6	1
0	20214	34.6	2
0	20215	34.6	2
0	20216	34.6	1
0	20237	34.65	1
0	20238	34.65	2
0	20239	34.65	2
0	20240	34.65	1
0	20253	34.7	1
0	20254	34.7	2
0	20255	34.7	2
0	20256	34.7	1
0	20258	34.7	1
0	20259	34.7	2
0	20260	34.7	2
0	20261	34.7	1
0	20348	34.75	1
0	20349	34.75	2
0	20350	34.75	2
0	20351	34.75	1
0	20373	34.8	1
0	20374	34.8	2
0	20375	34.8	2
0	20376	34.8	1
0	20378	34.8	1
0	20379	34.8	2
0	20380	34.8	2
0	20381	34.8	1
0	20402	34.85	1
0	20403	34.85	2
0	20404	34.85	2
0	20405	34.85	1
0	20436	34.9	1
0	20437	34.9	2
0	20438	34.9	2
0	20439	34.9	1
0	20441	34.9	1
0	20442	34.9	2
0	20443	34.9	2
0	20444	34.9	1
0	20465	34.95	1
0	20466	34.95	2
0	20467	34.95	2
0	20468	34.95	1
0	20482	35	1
0	20483	35	2
0	20484	35	2
0	20485	35	1
0	20487	35	1
0	20488	35	2
0	20489	35	2
0	20490	35	1
0	20516	35.05	1
0	20517	35.05	2
0	20518	35.05	2
0	20519	35.05	1
0	20536	35.1	1
0	20537	35.1	2
0	20538	35.1	2
0	20539	35.1	1
0	20541	35.1	1
0	20542	35.1	2
0	20543	35.1	2
0	20544	35.1	1
0	20584	35.15	1
0	20585	35.15	2
0	20586	35.15	2
0	20587	35.15	1
0	20600	35.2	1
0	20601	35.2	2
0	20602	35.2	2
0	20603	35.2	1
0	20605	35.2	1
0	20606	35.2	2
0	20607	35.2	2
0	20608	35.2	1
0	20629	35.25	1
0	20630	35.25	2
0	20631	35.25	2
0	20632	35.25	1
0	20709	35.3	1
0	20710	35.3	2
0	20711	35.3	2
0	20712	35.3	1
0	20714	35.3	1
0	20715	35.3	2
0	20716	35.3	2
0	20717	35.3	1
0	20744	35.35	1
0	20745	35.35	2
0	20746	35.35	2
0	20747	35.35	1
0	20760	35.4	1
0	20761	35.4	2
0	20762	35.4	2
0	20763	35.4	1
0	20765	35.4	1
0	20766	35.4	2
0	20767	35.4	2
0	20768	35.4	1
0	20824	35.45	1
0	20825	35.45	2
0	20826	35.45	2
0	20827	35.45	1
0	20840	35.5	1
0	20841	35.5	2
0	20842	35.5	2
0	20843	35.5	1
0	20845	35.5	1
0	20846	35.5	2
0	20847	35.5	2
0	20848	35.5	1
0	20869	35.55	1
0	20870	35.55	2
0	20871	35.55	2
0	20872	35.55	1
0	20890	35.6	1
0	20891	35.6	2
0	20892	35.6	2
0	20893	35.6	1
0	20895	35.6	1
0	20896	35.6	2
0	20897	35.6	2
0	20898	35.6	1
0	20919	35.65	1
0	20920	35.65	2
0	20921	35.65	2
0	20922	35.65	1
0	20940	35.7	1
0	20941	35.7	2
0	20942	35.7	2
0	20943	35.7	1
0	20945	35.7	1
0	20946	35.7	2
0	20947	35.7	2
0	20948	35.7	1
0	20969	35.75	1
0	20970	35.75	2
0	20971	35.75	2
0	20972	35.75	1
0	20985	35.8	1
0	20986	35.8	2
0	20987	35.8	2
0	20988	35.8	1
0	20990	35.8	1
0	20991	35.8	2
0	20992	35.8	2
0	20993	35.8	1
0	21032	35.85	1
0	21033	35.85	2
0	21034	35.85	2
0	21035	35.85	1
0	21048	35.9	1
0	21049	35.9	2
0	21050	35.9	2
0	21051	35.9	1
0	21053	35.9	1
0	21054	35.9	2
0	21055	35.9	2
0	21056	35.9	1
0	21077	35.95	1
0	21078	35.95	2
0	21079	35.95	2
0	21080	35.95	1
0	21111	36	1
0	21112	36	2
0	21113	36	2
0	21114	36	1
0	21116	36	1
0	21117	36	2
0	21118	36	2
0	21119	36	1
0	21140	36.05	1
0	21141	36.05	2
0	21142	36.05	2
0	21143	36.05	1
0	21160	36.1	1
0	21161	36.1	2
0	21162	36.1	2
0	21163	36.1	1
0	21165	36.1	1
0	21166	36.1	2
0	21167	36.1	2
0	21168	36.1	1
0	21194	36.15	1
0	21195	36.15	2
0	21196	36.15	2
0	21197	36.15	1
0	21210	36.2	1
0	21211	36.2	2
0	21212	36.2	2
0	21213	36.2	1
0	21215	36.2	1
0	21216	36.2	2
0	21217	36.2	2
0	21218	36.2	1
0	21239	36.25	1
0	21240	36.25	2
0	21241	36.25	2
0	21242	36.25	1
0	21255	36.3	1
0	21256	36.3	2
0	21257	36.3	2
0	21258	36.3	1
0	21260	36.3	1
0	21261	36.3	2
0	21262	36.3	2
0	21263	36.3	1
0	21284	36.35	1
0	21285	36.35	2
0	21286	36.35	2
0	21287	36.35	1
0	21318	36.4	1
0	21319	36.4	2
0	21320	36.4	2
0	21321	36.4	1
0	21323	36.4	1
0	21324	36.4	2
0	21325	36.4	2
0	21326	36.4	1
0	21347	36.45	1
0	21348	36.45	2
0	21349	36.45	2
0	21350	36.45	1
0	21363	36.5	1
0	21364	36.5	2
0	21365	36.5	2
0	21366	36.5	1
0	21368	36.5	1
0	21369	36.5	2
0	21370	36.5	2
0	21371	36.5	1
0	21397	36.55	1
0	21398	36.55	2
0	21399	36.55	2
0	21400	36.55	1
0	21413	36.6	1
0	21414	36.6	2
0	21415	36.6	2
0	21416	36.6	1
0	21418	36.6	1
0	21419	36.6	2
0	21420	36.6	2
0	21421	36.6	1
0	21460	36.65	1
0	21461	36.65	2
0	21462	36.65	2
0	21463	36.65	1
0	21476	36.7	1
0	21477	36.7	2
0	21478	36.7	2
0	21479	36.7	1
0	21481	36.7	1
0	21482	36.7	2
0	21483	36.7	2
0	21484	36.7	1
0	21505	36.75	1
0	21506	36.75	2
0	21507	36.75	2
0	21508	36.75	1
0	21526	36.8	1
0	21527	36.8	2
0	21528	36.8	2
0	21529	36.8	1
0	21531	36.8	1
0	21532	36.8	2
0	21533	36.8	2
0	21534	36.8	1
0	21555	36.85	1
0	21556	36.85	2
0	21557	36.85	2
0	21558	36.85	1
0	21594	36.9	1
0	21595	36.9	2
0	21596	36.9	2
0	21597	36.9	1
0	21599	36.9	1
0	21600	36.9	2
0	21601	36.9	2
0	21602	36.9	1
0	21623	36.95	1
0	21624	36.95	2
0	21625	36.95	2
0	21626	36.95	1
0	21642	37	1
0	21643	37	2
0	21644	37	2
0	21645	37	1
0	21647	37	1
0	21648	37	2
0	21649	37	2
0	21650	37	1
0	21676	37.05	1
0	21677	37.05	2
0	21678	37.05	2
0	21679	37.05	1
0	21696	37.1	1
0	21697	37.1	2
0	21698	37.1	2
0	21699	37.1	1
0	21701	37.1	1
0	21702	37.1	2
0	21703	37.1	2
0	21704	37.1	1
0	21730	37.15	1
0	21731	37.15	2
0	21732	37.15	2
0	21733	37.15	1
0	21746	37.2	1
0	21747	37.2	2
0	21748	37.2	2
0	21749	37.2	1
0	21751	37.2	1
0	21752	37.2	2
0	21753	37.2	2
0	21754	37.2	1
0	21775	37.25	1
0	21776	37.25	2
0	21777	37.25	2
0	21778	37.25	1
0	21791	37.3	1
0	21792	37.3	2
0	21793	37.3	2
0	21794	37.3	1
0	21796	37.3	1
0	21797	37.3	2
0	21798	37.3	2
0	21799	37.3	1
0	21820	37.35	1
0	21821	37.35	2
0	21822	37.35	2
0	21823	37.35	1
0	21836	37.4	1
0	21837	37.4	2
0	21838	37.4	2
0	21839	37.4	1
0	21841	37.4	1
0	21842	37.4	2
0	21843	37.4	2
0	21844	37.4	1
0	21865	37.45	1
0	21866	37.45	2
0	21867	37.45	2
0	21868	37.45	1
0	21881	37.5	1
0	21882	37.5	2
0	21883	37.5	2
0	21884	37.5	1
0	21886	37.5	1
0	21887	37.5	2
0	21888	37.5	2
0	21889	37.5	1
0	21910	37.55	1
0	21911	37.55	2
0	21912	37.55	2
0	21913	37.55	1
0	21926	37.6	1
0	21927	37.6	2
0	21928	37.6	2
0	21929	37.6	1
0	21931	37.6	1
0	21932	37.6	2
0	21933	37.6	2
0	21934	37.6	1
0	21955	37.65	1
0	21956	37.65	2
0	21957	37.65	2
0	21958	37.65	1
0	21971	37.7	1
0	21972	37.7	2
0	21973	37.7	2
0	21974	37.7	1
0	21976	37.7	1
0	21977	37.7	2
0	21978	37.7	2
0	21979	37.7	1
0	22000	37.75	1
0	22001	37.75	2
0	22002	37.75	2
0	22003	37.75	1
0	22016	37.8	1
0	22017	37.8	2
0	22018	37.8	2
0	22019	37.8	1
0	22021	37.8	1
0	22022	37.8	2
0	22023	37.8	2
0	22024	37.8	1
0	22045	37.85	1
0	22046	37.85	2
0	22047	37.85	2
0	22048	37.85	1
0	22061	37.9	1
0	22062	37.9	2
0	22063	37.9	2
0	22064	37.9	1
0	22066	37.9	1
0	22067	37.9	2
0	22068	37.9	2
0	22069	37.9	1
0	22090	37.95	1
0	22091	37.95	2
0	22092	37.95	2
0	22093	37.95	1
0	22124	38	1
0	22125	38	2
0	22126	38	2
0	22127	38	1
0	22129	38	1
0	22130	38	2
0	22131	38	2
0	22132	38	1
0	22153	38.05	1
0	22154	38.05	2
0	22155	38.05	2
0	22156	38.05	1
0	22173	38.1	1
0	22174	38.1	2
0	22175	38.1	2
0	22176	38.1	1
0	22178	38.1	1
0	22179	38.1	2
0	22180	38.1	2
0	22181	38.1	1
0	22255	38.15	1
0	22256	38.15	2
0	22257	38.15	2
0	22258	38.15	1
0	22292	38.2	1
0	22293	38.2	2
0	22294	38.2	2
0	22295	38.2	1
0	22297	38.2	1
0	22298	38.2	2
0	22299	38.2	2
0	22300	38.2	1
0	22335	38.25	1
0	22336	38.25	2
0	22337	38.25	2
0	22338	38.25	1
0	22351	38.3	1
0	22352	38.3	2
0	22353	38.3	2
0	22354	38.3	1
0	22356	38.3	1
0	22357	38.3	2
0	22358	38.3	2
0	22359	38.3	1
0	22380	38.35	1
0	22381	38.35	2
0	22382	38.35	2
0	22383	38.35	1
0	22401	38.4	1
0	22402	38.4	2
0	22403	38.4	2
0	22404	38.4	1
0	22406	38.4	1
0	22407	38.4	2
0	22408	38.4	2
0	22409	38.4	1
0	22430	38.45	1
0	22431	38.45	2
0	22432	38.45	2
0	22433	38.45	1
0	22494	38.5	1
0	22495	38.5	2
0	22496	38.5	2
0	22497	38.5	1
0	22499	38.5	1
0	22500	38.5	2
0	22501	38.5	2
0	22502	38.5	1
0	22559	38.55	1
0	22560	38.55	2
0	22561	38.55	2
0	22562	38.55	1
0	22575	38.6	1
0	22576	38.6	2
0	22577	38.6	2
0	22578	38.6	1
0	22580	38.6	1
0	22581	38.6	2
0	22582	38.6	2
0	22583	38.6	1
0	22609	38.65	1
0	22610	38.65	2
0	22611	38.65	2
0	22612	38.65	1
0	22643	38.7	1
0	22644	38.7	2
0	22645	38.7	2
0	22646	38.7	1
0	22648	38.7	1
0	22649	38.7	2
0	22650	38.7	2
0	22651	38.7	1
0	22672	38.75	1
0	22673	38.75	2
0	22674	38.75	2
0	22675	38.75	1
0	22688	38.8	1
0	22689	38.8	2
0	22690	38.8	2
0	22691	38.8	1
0	22693	38.8	1
0	22694	38.8	2
0	22695	38.8	2
0	22696	38.8	1
0	22717	38.85	1
0	22718	38.85	2
0	22719	38.85	2
0	22720	38.85	1
0	22733	38.9	1
0	22734	38.9	2
0	22735	38.9	2
0	22736	38.9	1
0	22738	38.9	1
0	22739	38.9	2
0	22740	38.9	2
0	22741	38.9	1
0	22762	38.95	1
0	22763	38.95	2
0	22764	38.95	2
0	22765	38.95	1
0	22778	39	1
0	22779	39	2
0	22780	39	2
0	22781	39	1
0	22783	39	1
0	22784	39	2
0	22785	39	2
0	22786	39	1
0	22807	39.05	1
0	22808	39.05	2
0	22809	39.05	2
0	22810	39.05	1
0	22845	39.1	1
0	22846	39.1	2
0	22847	39.1	2
0	22848	39.1	1
0	22850	39.1	1
0	22851	39.1	2
0	22852	39.1	2
0	22853	39.1	1
0	22879	39.15	1
0	22880	39.15	2
0	22881	39.15	2
0	22882	39.15	1
0	22895	39.2	1
0	22896	39.2	2
0	22897	39.2	2
0	22898	39.2	1
0	22900	39.2	1
0	22901	39.2	2
0	22902	39.2	2
0	22903	39.2	1
0	22938	39.25	1
0	22939	39.25	2
0	22940	39.25	2
0	22941	39.25	1
0	22954	39.3	1
0	22955	39.3	2
0	22956	39.3	2
0	22957	39.3	1
0	22959	39.3	1
0	22960	39.3	2
0	22961	39.3	2
0	22962	39.3	1
0	22983	39.35	1
0	22984	39.35	2
0	22985	39.35	2
0	22986	39.35	1
0	22999	39.4	1
0	23000	39.4	2
0	23001	39.4	2
0	23002	39.4	1
0	23004	39.4	1
0	23005	39.4	2
0	23006	39.4	2
0	23007	39.4	1
0	23028	39.45	1
0	23029	39.45	2
0	23030	39.45	2
0	23031	39.45	1
0	23044	39.5	1
0	23045	39.5	2
0	23046	39.5	2
0	23047	39.5	1
0	23049	39.5	1
0	23050	39.5	2
0	23051	39.5	2
0	23052	39.5	1
0	23073	39.55	1
0	23074	39.55	2
0	23075	39.55	2
0	23076	39.55	1
0	23089	39.6	1
0	23090	39.6	2
0	23091	39.6	2
0	23092	39.6	1
0	23094	39.6	1
0	23095	39.6	2
0	23096	39.6	2
0	23097	39.6	1
0	23136	39.65	1
0	23137	39.65	2
0	23138	39.65	2
0	23139	39.65	1
0	23152	39.7	1
0	23153	39.7	2
0	23154	39.7	2
0	23155	39.7	1
0	23157	39.7	1
0	23158	39.7	2
0	23159	39.7	2
0	23160	39.7	1
0	23181	39.75	1
0	23182	39.75	2
0	23183	39.75	2
0	23184	39.75	1
0	23232	39.8	1
0	23233	39.8	2
0	23234	39.8	2
0	23235	39.8	1
0	23237	39.8	1
0	23238	39.8	2
0	23239	39.8	2
0	23240	39.8	1
0	23279	39.85	1
0	23280	39.85	2
0	23281	39.85	2
0	23282	39.85	1
0	23295	39.9	1
0	23296	39.9	2
0	23297	39.9	2
0	23298	39.9	1
0	23300	39.9	1
0	23301	39.9	2
0	23302	39.9	2
0	23303	39.9	1
0	23324	39.95	1
0	23325	39.95	2
0	23326	39.95	2
0	23327	39.95	1
0	23346	40	1
0	23347	40	2
0	23348	40	2
0	23349	40	1
0	23351	40	1
0	23352	40	2
0	23353	40	2
0	23354	40	1
0	23375	40.05	1
0	23376	40.05	2
0	23377	40.05	2
0	23378	40.05	1
0	23400	40.1	1
0	23401	40.1	2
0	23402	40.1	2
0	23403	40.1	1
0	23405	40.1	1
0	23406	40.1	2
0	23407	40.1	2
0	23408	40.1	1
0	23434	40.15	1
0	23435	40.15	2
0	23436	40.15	2
0	23437	40.15	1
0	23468	40.2	1
0	23469	40.2	2
0	23470	40.2	2
0	23471	40.2	1
0	23473	40.2	1
0	23474	40.2	2
0	23475	40.2	2
0	23476	40.2	1
0	23511	40.25	1
0	23512	40.25	2
0	23513	40.25	2
0	23514	40.25	1
0	23527	40.3	1
0	23528	40.3	2
0	23529	40.3	2
0	23530	40.3	1
0	23532	40.3	1
0	23533	40.3	2
0	23534	40.3	2
0	23535	40.3	1
0	23591	40.35	1
0	23592	40.35	2
0	23593	40.35	2
0	23594	40.35	1
0	23607	40.4	1
0	23608	40.4	2
0	23609	40.4	2
0	23610	40.4	1
0	23612	40.4	1
0	23613	40.4	2
0	23614	40.4	2
0	23615	40.4	1
0	23636	40.45	1
0	23637	40.45	2
0	23638	40.45	2
0	23639	40.45	1
0	23652	40.5	1
0	23653	40.5	2
0	23654	40.5	2
0	23655	40.5	1
0	23657	40.5	1
0	23658	40.5	2
0	23659	40.5	2
0	23660	40.5	1
0	23681	40.55	1
0	23682	40.55	2
0	23683	40.55	2
0	23684	40.55	1
0	23697	40.6	1
0	23698	40.6	2
0	23699	40.6	2
0	23700	40.6	1
0	23702	40.6	1
0	23703	40.6	2
0	23704	40.6	2
0	23705	40.6	1
0	23740	40.65	1
0	23741	40.65	2
0	23742	40.65	2
0	23743	40.65	1
0	23756	40.7	1
0	23757	40.7	2
0	23758	40.7	2
0	23759	40.7	1
0	23761	40.7	1
0	23762	40.7	2
0	23763	40.7	2
0	23764	40.7	1
0	23803	40.75	1
0	23804	40.75	2
0	23805	40.75	2
0	23806	40.75	1
0	23837	40.8	1
0	23838	40.8	2
0	23839	40.8	2
0	23840	40.8	1
0	23842	40.8	1
0	23843	40.8	2
0	23844	40.8	2
0	23845	40.8	1
0	23866	40.85	1
0	23867	40.85	2
0	23868	40.85	2
0	23869	40.85	1
0	23900	40.9	1
0	23901	40.9	2
0	23902	40.9	2
0	23903	40.9	1
0	23905	40.9	1
0	23906	40.9	2
0	23907	40.9	2
0	23908	40.9	1
0	23929	40.95	1
0	23930	40.95	2
0	23931	40.95	2
0	23932	40.95	1
0	23945	41	1
0	23946	41	2
0	23947	41	2
0	23948	41	1
0	23950	41	1
0	23951	41	2
0	23952	41	2
0	23953	41	1
0	23974	41.05	1
0	23975	41.05	2
0	23976	41.05	2
0	23977	41.05	1
0	23994	41.1	1
0	23995	41.1	2
0	23996	41.1	2
0	23997	41.1	1
0	23999	41.1	1
0	24000	41.1	2
0	24001	41.1	2
0	24002	41.1	1
0	24028	41.15	1
0	24029	41.15	2
0	24030	41.15	2
0	24031	41.15	1
0	24094	41.2	1
0	24095	41.2	2
0	24096	41.2	2
0	24097	41.2	1
0	24099	41.2	1
0	24100	41.2	2
0	24101	41.2	2
0	24102	41.2	1
0	24144	41.25	1
0	24145	41.25	2
0	24146	41.25	2
0	24147	41.25	1
0	24178	41.3	1
0	24179	41.3	2
0	24180	41.3	2
0	24181	41.3	1
0	24183	41.3	1
0	24184	41.3	2
0	24185	41.3	2
0	24186	41.3	1
0	24212	41.35	1
0	24213	41.35	2
0	24214	41.35	2
0	24215	41.35	1
0	24228	41.4	1
0	24229	41.4	2
0	24230	41.4	2
0	24231	41.4	1
0	24233	41.4	1
0	24234	41.4	2
0	24235	41.4	2
0	24236	41.4	1
0	24297	41.45	1
0	24298	41.45	2
0	24299	41.45	2
0	24300	41.45	1
0	24313	41.5	1
0	24314	41.5	2
0	24315	41.5	2
0	24316	41.5	1
0	24318	41.5	1
0	24319	41.5	2
0	24320	41.5	2
0	24321	41.5	1
0	24342	41.55	1
0	24343	41.55	2
0	24344	41.55	2
0	24345	41.55	1
0	24372	41.6	1
0	24373	41.6	2
0	24374	41.6	2
0	24375	41.6	1
0	24377	41.6	1
0	24378	41.6	2
0	24379	41.6	2
0	24380	41.6	1
0	24401	41.65	1
0	24402	41.65	2
0	24403	41.65	2
0	24404	41.65	1
0	24417	41.7	1
0	24418	41.7	2
0	24419	41.7	2
0	24420	41.7	1
0	24422	41.7	1
0	24423	41.7	2
0	24424	41.7	2
0	24425	41.7	1
0	24446	41.75	1
0	24447	41.75	2
0	24448	41.75	2
0	24449	41.75	1
0	24462	41.8	1
0	24463	41.8	2
0	24464	41.8	2
0	24465	41.8	1
0	24467	41.8	1
0	24468	41.8	2
0	24469	41.8	2
0	24470	41.8	1
0	24509	41.85	1
0	24510	41.85	2
0	24511	41.85	2
0	24512	41.85	1
0	24525	41.9	1
0	24526	41.9	2
0	24527	41.9	2
0	24528	41.9	1
0	24530	41.9	1
0	24531	41.9	2
0	24532	41.9	2
0	24533	41.9	1
0	24554	41.95	1
0	24555	41.95	2
0	24556	41.95	2
0	24557	41.95	1
0	24596	42	1
0	24597	42	2
0	24598	42	2
0	24599	42	1
0	24601	42	1
0	24602	42	2
0	24603	42	2
0	24604	42	1
0	24625	42.05	1
0	24626	42.05	2
0	24627	42.05	2
0	24628	42.05	1
0	24645	42.1	1
0	24646	42.1	2
0	24647	42.1	2
0	24648	42.1	1
0	24650	42.1	1
0	24651	42.1	2
0	24652	42.1	2
0	24653	42.1	1
0	24679	42.15	1
0	24680	42.15	2
0	24681	42.15	2
0	24682	42.15	1
0	24695	42.2	1
0	24696	42.2	2
0	24697	42.2	2
0	24698	42.2	1
0	24700	42.2	1
0	24701	42.2	2
0	24702	42.2	2
0	24703	42.2	1
0	24724	42.25	1
0	24725	42.25	2
0	24726	42.25	2
0	24727	42.25	1
0	24740	42.3	1
0	24741	42.3	2
0	24742	42.3	2
0	24743	42.3	1
0	24745	42.3	1
0	24746	42.3	2
0	24747	42.3	2
0	24748	42.3	1
0	24769	42.35	1
0	24770	42.35	2
0	24771	42.35	2
0	24772	42.35	1
0	24803	42.4	1
0	24804	42.4	2
0	24805	42.4	2
0	24806	42.4	1
0	24808	42.4	1
0	24809	42.4	2
0	24810	42.4	2
0	24811	42.4	1
0	24832	42.45	1
0	24833	42.45	2
0	24834	42.45	2
0	24835	42.45	1
0	24848	42.5	1
0	24849	42.5	2
0	24850	42.5	2
0	24851	42.5	1
0	24853	42.5	1
0	24854	42.5	2
0	24855	42.5	2
0	24856	42.5	1
0	24912	42.55	1
0	24913	42.55	2
0	24914	42.55	2
0	24915	42.55	1
0	24928	42.6	1
0	24929	42.6	2
0	24930	42.6	2
0	24931	42.6	1
0	24933	42.6	1
0	24934	42.6	2
0	24935	42.6	2
0	24936	42.6	1
0	24957	42.65	1
0	24958	42.65	2
0	24959	42.65	2
0	24960	42.65	1
0	24973	42.7	1
0	24974	42.7	2
0	24975	42.7	2
0	24976	42.7	1
0	24978	42.7	1
0	24979	42.7	2
0	24980	42.7	2
0	24981	42.7	1
0	25002	42.75	1
0	25003	42.75	2
0	25004	42.75	2
0	25005	42.75	1
0	25032	42.8	1
0	25033	42.8	2
0	25034	42.8	2
0	25035	42.8	1
0	25037	42.8	1
0	25038	42.8	2
0	25039	42.8	2
0	25040	42.8	1
0	25061	42.85	1
0	25062	42.85	2
0	25063	42.85	2
0	25064	42.85	1
0	25077	42.9	1
0	25078	42.9	2
0	25079	42.9	2
0	25080	42.9	1
0	25082	42.9	1
0	25083	42.9	2
0	25084	42.9	2
0	25085	42.9	1
0	25129	42.95	1
0	25130	42.95	2
0	25131	42.95	2
0	25132	42.95	1
0	25145	43	1
0	25146	43	2
0	25147	43	2
0	25148	43	1
0	25150	43	1
0	25151	43	2
0	25152	43	2
0	25153	43	1
0	25174	43.05	1
0	25175	43.05	2
0	25176	43.05	2
0	25177	43.05	1
0	25212	43.1	1
0	25213	43.1	2
0	25214	43.1	2
0	25215	43.1	1
0	25217	43.1	1
0	25218	43.1	2
0	25219	43.1	2
0	25220	43.1	1
0	25246	43.15	1
0	25247	43.15	2
0	25248	43.15	2
0	25249	43.15	1
0	25280	43.2	1
0	25281	43.2	2
0	25282	43.2	2
0	25283	43.2	1
0	25285	43.2	1
0	25286	43.2	2
0	25287	43.2	2
0	25288	43.2	1
0	25309	43.25	1
0	25310	43.25	2
0	25311	43.25	2
0	25312	43.25	1
0	25325	43.3	1
0	25326	43.3	2
0	25327	43.3	2
0	25328	43.3	1
0	25330	43.3	1
0	25331	43.3	2
0	25332	43.3	2
0	25333	43.3	1
0	25359	43.35	1
0	25360	43.35	2
0	25361	43.35	2
0	25362	43.35	1
0	25375	43.4	1
0	25376	43.4	2
0	25377	43.4	2
0	25378	43.4	1
0	25380	43.4	1
0	25381	43.4	2
0	25382	43.4	2
0	25383	43.4	1
0	25404	43.45	1
0	25405	43.45	2
0	25406	43.45	2
0	25407	43.45	1
0	25438	43.5	1
0	25439	43.5	2
0	25440	43.5	2
0	25441	43.5	1
0	25443	43.5	1
0	25444	43.5	2
0	25445	43.5	2
0	25446	43.5	1
0	25467	43.55	1
0	25468	43.55	2
0	25469	43.55	2
0	25470	43.55	1
0	25483	43.6	1
0	25484	43.6	2
0	25485	43.6	2
0	25486	43.6	1
0	25488	43.6	1
0	25489	43.6	2
0	25490	43.6	2
0	25491	43.6	1
0	25547	43.65	1
0	25548	43.65	2
0	25549	43.65	2
0	25550	43.65	1
0	25563	43.7	1
0	25564	43.7	2
0	25565	43.7	2
0	25566	43.7	1
0	25568	43.7	1
0	25569	43.7	2
0	25570	43.7	2
0	25571	43.7	1
0	25592	43.75	1
0	25593	43.75	2
0	25594	43.75	2
0	25595	43.75	1
0	25608	43.8	1
0	25609	43.8	2
0	25610	43.8	2
0	25611	43.8	1
0	25613	43.8	1
0	25614	43.8	2
0	25615	43.8	2
0	25616	43.8	1
0	25637	43.85	1
0	25638	43.85	2
[...]
0	54684	91.2	1
0	54685	91.2	1
0	54754	91.25	1
0	54755	91.25	1
0	54756	91.25	1
0	54757	91.25	1
0	54791	91.3	1
0	54792	91.3	1
0	54793	91.3	1
0	54794	91.3	1
0	54795	91.3	1
0	54796	91.3	1
0	54797	91.3	1
0	54798	91.3	1
0	54819	91.35	1
0	54820	91.35	1
0	54821	91.35	1
0	54822	91.35	1
0	54835	91.4	1
0	54836	91.4	1
0	54837	91.4	1
0	54838	91.4	1
0	54839	91.4	1
0	54840	91.4	1
0	54841	91.4	1
0	54842	91.4	1
0	54881	91.45	1
0	54882	91.45	1
0	54883	91.45	1
0	54884	91.45	1
0	54897	91.5	1
0	54898	91.5	1
0	54899	91.5	1
0	54900	91.5	1
0	54901	91.5	1
0	54902	91.5	1
0	54903	91.5	1
0	54904	91.5	1
0	54925	91.55	1
0	54926	91.55	1
0	54927	91.55	1
0	54928	91.55	1
0	54941	91.6	1
0	54942	91.6	1
0	54943	91.6	1
0	54944	91.6	1
0	54945	91.6	1
0	54946	91.6	1
0	54947	91.6	1
0	54948	91.6	1
0	55022	91.65	1
0	55023	91.65	1
0	55024	91.65	1
0	55025	91.65	1
0	55038	91.7	1
0	55039	91.7	1
0	55040	91.7	1
0	55041	91.7	1
0	55042	91.7	1
0	55043	91.7	1
0	55044	91.7	1
0	55045	91.7	1
0	55066	91.75	1
0	55067	91.75	1
0	55068	91.75	1
0	55069	91.75	1
0	55100	91.8	1
0	55101	91.8	1
0	55102	91.8	1
0	55103	91.8	1
0	55104	91.8	1
0	55105	91.8	1
0	55106	91.8	1
0	55107	91.8	1
0	55128	91.85	1
0	55129	91.85	1
0	55130	91.85	1
0	55131	91.85	1
0	55144	91.9	1
0	55145	91.9	1
0	55146	91.9	1
0	55147	91.9	1
0	55148	91.9	1
0	55149	91.9	1
0	55150	91.9	1
0	55151	91.9	1
0	55172	91.95	1
0	55173	91.95	1
0	55174	91.95	1
0	55175	91.95	1
0	55209	92	1
0	55210	92	1
0	55211	92	1
0	55212	92	1
0	55213	92	1
0	55214	92	1
0	55215	92	1
0	55216	92	1
0	55237	92.05	1
0	55238	92.05	1
0	55239	92.05	1
0	55240	92.05	1
0	55257	92.1	1
0	55258	92.1	1
0	55259	92.1	1
0	55260	92.1	1
0	55261	92.1	1
0	55262	92.1	1
0	55263	92.1	1
0	55264	92.1	1
0	55291	92.15	1
0	55292	92.15	1
0	55293	92.15	1
0	55294	92.15	1
0	55356	92.2	1
0	55357	92.2	1
0	55358	92.2	1
0	55359	92.2	1
0	55360	92.2	1
0	55361	92.2	1
0	55362	92.2	1
0	55363	92.2	1
0	55384	92.25	1
0	55385	92.25	1
0	55386	92.25	1
0	55387	92.25	1
0	55400	92.3	1
0	55401	92.3	1
0	55402	92.3	1
0	55403	92.3	1
0	55404	92.3	1
0	55405	92.3	1
0	55406	92.3	1
0	55407	92.3	1
0	55433	92.35	1
0	55434	92.35	1
0	55435	92.35	1
0	55436	92.35	1
0	55449	92.4	1
0	55450	92.4	1
0	55451	92.4	1
0	55452	92.4	1
0	55453	92.4	1
0	55454	92.4	1
0	55455	92.4	1
0	55456	92.4	1
0	55477	92.45	1
0	55478	92.45	1
0	55479	92.45	1
0	55480	92.45	1
0	55493	92.5	1
0	55494	92.5	1
0	55495	92.5	1
0	55496	92.5	1
0	55497	92.5	1
0	55498	92.5	1
0	55499	92.5	1
0	55500	92.5	1
0	55539	92.55	1
0	55540	92.55	1
0	55541	92.55	1
0	55542	92.55	1
0	55555	92.6	1
0	55556	92.6	1
0	55557	92.6	1
0	55558	92.6	1
0	55559	92.6	1
0	55560	92.6	1
0	55561	92.6	1
0	55562	92.6	1
0	55583	92.65	1
0	55584	92.65	1
0	55585	92.65	1
0	55586	92.65	1
0	55599	92.7	1
0	55600	92.7	1
0	55601	92.7	1
0	55602	92.7	1
0	55603	92.7	1
0	55604	92.7	1
0	55605	92.7	1
0	55606	92.7	1
0	55645	92.75	1
0	55646	92.75	1
0	55647	92.75	1
0	55648	92.75	1
0	55661	92.8	1
0	55662	92.8	1
0	55663	92.8	1
0	55664	92.8	1
0	55665	92.8	1
0	55666	92.8	1
0	55667	92.8	1
0	55668	92.8	1
0	55689	92.85	1
0	55690	92.85	1
0	55691	92.85	1
0	55692	92.85	1
0	55705	92.9	1
0	55706	92.9	1
0	55707	92.9	1
0	55708	92.9	1
0	55709	92.9	1
0	55710	92.9	1
0	55711	92.9	1
0	55712	92.9	1
0	55733	92.95	1
0	55734	92.95	1
0	55735	92.95	1
0	55736	92.95	1
0	55749	93	1
0	55750	93	1
0	55751	93	1
0	55752	93	1
0	55753	93	1
0	55754	93	1
0	55755	93	1
0	55756	93	1
0	55777	93.05	1
0	55778	93.05	1
0	55779	93.05	1
0	55780	93.05	1
0	55815	93.1	1
0	55816	93.1	1
0	55817	93.1	1
0	55818	93.1	1
0	55819	93.1	1
0	55820	93.1	1
0	55821	93.1	1
0	55822	93.1	1
0	55849	93.15	1
0	55850	93.15	1
0	55851	93.15	1
0	55852	93.15	1
0	55865	93.2	1
0	55866	93.2	1
0	55867	93.2	1
0	55868	93.2	1
0	55869	93.2	1
0	55870	93.2	1
0	55871	93.2	1
0	55872	93.2	1
0	55893	93.25	1
0	55894	93.25	1
0	55895	93.25	1
0	55896	93.25	1
0	55944	93.3	1
0	55945	93.3	1
0	55946	93.3	1
0	55947	93.3	1
0	55948	93.3	1
0	55949	93.3	1
0	55950	93.3	1
0	55951	93.3	1
0	55972	93.35	1
0	55973	93.35	1
0	55974	93.35	1
0	55975	93.35	1
0	55988	93.4	1
0	55989	93.4	1
0	55990	93.4	1
0	55991	93.4	1
0	55992	93.4	1
0	55993	93.4	1
0	55994	93.4	1
0	55995	93.4	1
0	56016	93.45	1
0	56017	93.45	1
0	56018	93.45	1
0	56019	93.45	1
0	56032	93.5	1
0	56033	93.5	1
0	56034	93.5	1
0	56035	93.5	1
0	56036	93.5	1
0	56037	93.5	1
0	56038	93.5	1
0	56039	93.5	1
0	56060	93.55	1
0	56061	93.55	1
0	56062	93.55	1
0	56063	93.55	1
0	56076	93.6	1
0	56077	93.6	1
0	56078	93.6	1
0	56079	93.6	1
0	56080	93.6	1
0	56081	93.6	1
0	56082	93.6	1
0	56083	93.6	1
0	56122	93.65	1
0	56123	93.65	1
0	56124	93.65	1
0	56125	93.65	1
0	56138	93.7	1
0	56139	93.7	1
0	56140	93.7	1
0	56141	93.7	1
0	56142	93.7	1
0	56143	93.7	1
0	56144	93.7	1
0	56145	93.7	1
0	56166	93.75	1
0	56167	93.75	1
0	56168	93.75	1
0	56169	93.75	1
0	56200	93.8	1
0	56201	93.8	1
0	56202	93.8	1
0	56203	93.8	1
0	56204	93.8	1
0	56205	93.8	1
0	56206	93.8	1
0	56207	93.8	1
0	56246	93.85	1
0	56247	93.85	1
0	56248	93.85	1
0	56249	93.85	1
0	56262	93.9	1
0	56263	93.9	1
0	56264	93.9	1
0	56265	93.9	1
0	56266	93.9	1
0	56267	93.9	1
0	56268	93.9	1
0	56269	93.9	1
0	56336	93.95	1
0	56337	93.95	1
0	56338	93.95	1
0	56339	93.95	1
0	56358	94	1
0	56359	94	1
0	56360	94	1
0	56361	94	1
0	56362	94	1
0	56363	94	1
0	56364	94	1
0	56365	94	1
0	56386	94.05	1
0	56387	94.05	1
0	56388	94.05	1
0	56389	94.05	1
0	56406	94.1	1
0	56407	94.1	1
0	56408	94.1	1
0	56409	94.1	1
0	56410	94.1	1
0	56411	94.1	1
0	56412	94.1	1
0	56413	94.1	1
0	56440	94.15	1
0	56441	94.15	1
0	56442	94.15	1
0	56443	94.15	1
0	56474	94.2	1
0	56475	94.2	1
0	56476	94.2	1
0	56477	94.2	1
0	56478	94.2	1
0	56479	94.2	1
0	56480	94.2	1
0	56481	94.2	1
0	56502	94.25	1
0	56503	94.25	1
0	56504	94.25	1
0	56505	94.25	1
0	56518	94.3	1
0	56519	94.3	1
0	56520	94.3	1
0	56521	94.3	1
0	56522	94.3	1
0	56523	94.3	1
0	56524	94.3	1
0	56525	94.3	1
0	56560	94.35	1
0	56561	94.35	1
0	56562	94.35	1
0	56563	94.35	1
0	56611	94.4	1
0	56612	94.4	1
0	56613	94.4	1
0	56614	94.4	1
0	56615	94.4	1
0	56616	94.4	1
0	56617	94.4	1
0	56618	94.4	1
0	56639	94.45	1
0	56640	94.45	1
0	56641	94.45	1
0	56642	94.45	1
0	56690	94.5	1
0	56691	94.5	1
0	56692	94.5	1
0	56693	94.5	1
0	56694	94.5	1
0	56695	94.5	1
0	56696	94.5	1
0	56697	94.5	1
0	56718	94.55	1
0	56719	94.55	1
0	56720	94.55	1
0	56721	94.55	1
0	56734	94.6	1
0	56735	94.6	1
0	56736	94.6	1
0	56737	94.6	1
0	56738	94.6	1
0	56739	94.6	1
0	56740	94.6	1
0	56741	94.6	1
0	56762	94.65	1
0	56763	94.65	1
0	56764	94.65	1
0	56765	94.65	1
0	56778	94.7	1
0	56779	94.7	1
0	56780	94.7	1
0	56781	94.7	1
0	56782	94.7	1
0	56783	94.7	1
0	56784	94.7	1
0	56785	94.7	1
0	56824	94.75	1
0	56825	94.75	1
0	56826	94.75	1
0	56827	94.75	1
0	56840	94.8	1
0	56841	94.8	1
0	56842	94.8	1
0	56843	94.8	1
0	56844	94.8	1
0	56845	94.8	1
0	56846	94.8	1
0	56847	94.8	1
0	56868	94.85	1
0	56869	94.85	1
0	56870	94.85	1
0	56871	94.85	1
0	56902	94.9	1
0	56903	94.9	1
0	56904	94.9	1
0	56905	94.9	1
0	56906	94.9	1
0	56907	94.9	1
0	56908	94.9	1
0	56909	94.9	1
0	56948	94.95	1
0	56949	94.95	1
0	56950	94.95	1
0	56951	94.95	1
0	56965	95	1
0	56966	95	1
0	56967	95	1
0	56968	95	1
0	56969	95	1
0	56970	95	1
0	56971	95	1
0	56972	95	1
0	57011	95.05	1
0	57012	95.05	1
0	57013	95.05	1
0	57014	95.05	1
0	57031	95.1	1
0	57032	95.1	1
0	57033	95.1	1
0	57034	95.1	1
0	57035	95.1	1
0	57036	95.1	1
0	57037	95.1	1
0	57038	95.1	1
0	57065	95.15	1
0	57066	95.15	1
0	57067	95.15	1
0	57068	95.15	1
0	57081	95.2	1
0	57082	95.2	1
0	57083	95.2	1
0	57084	95.2	1
0	57085	95.2	1
0	57086	95.2	1
0	57087	95.2	1
0	57088	95.2	1
0	57109	95.25	1
0	57110	95.25	1
0	57111	95.25	1
0	57112	95.25	1
0	57143	95.3	1
0	57144	95.3	1
0	57145	95.3	1
0	57146	95.3	1
0	57147	95.3	1
0	57148	95.3	1
0	57149	95.3	1
0	57150	95.3	1
0	57171	95.35	1
0	57172	95.35	1
0	57173	95.35	1
0	57174	95.35	1
0	57187	95.4	1
0	57188	95.4	1
0	57189	95.4	1
0	57190	95.4	1
0	57191	95.4	1
0	57192	95.4	1
0	57193	95.4	1
0	57194	95.4	1
0	57233	95.45	1
0	57234	95.45	1
0	57235	95.45	1
0	57236	95.45	1
0	57284	95.5	1
0	57285	95.5	1
0	57286	95.5	1
0	57287	95.5	1
0	57288	95.5	1
0	57289	95.5	1
0	57290	95.5	1
0	57291	95.5	1
0	57312	95.55	1
0	57313	95.55	1
0	57314	95.55	1
0	57315	95.55	1
0	57363	95.6	1
0	57364	95.6	1
0	57365	95.6	1
0	57366	95.6	1
0	57367	95.6	1
0	57368	95.6	1
0	57369	95.6	1
0	57370	95.6	1
0	57391	95.65	1
0	57392	95.65	1
0	57393	95.65	1
0	57394	95.65	1
0	57407	95.7	1
0	57408	95.7	1
0	57409	95.7	1
0	57410	95.7	1
0	57411	95.7	1
0	57412	95.7	1
0	57413	95.7	1
0	57414	95.7	1
0	57435	95.75	1
0	57436	95.75	1
0	57437	95.75	1
0	57438	95.75	1
0	57451	95.8	1
0	57452	95.8	1
0	57453	95.8	1
0	57454	95.8	1
0	57455	95.8	1
0	57456	95.8	1
0	57457	95.8	1
0	57458	95.8	1
0	57497	95.85	1
0	57498	95.85	1
0	57499	95.85	1
0	57500	95.85	1
0	57513	95.9	1
0	57514	95.9	1
0	57515	95.9	1
0	57516	95.9	1
0	57517	95.9	1
0	57518	95.9	1
0	57519	95.9	1
0	57520	95.9	1
0	57541	95.95	1
0	57542	95.95	1
0	57543	95.95	1
0	57544	95.95	1
0	57575	96	1
0	57576	96	1
0	57577	96	1
0	57578	96	1
0	57579	96	1
0	57580	96	1
0	57581	96	1
0	57582	96	1
0	57621	96.05	1
0	57622	96.05	1
0	57623	96.05	1
0	57624	96.05	1
0	57641	96.1	1
0	57642	96.1	1
0	57643	96.1	1
0	57644	96.1	1
0	57645	96.1	1
0	57646	96.1	1
0	57647	96.1	1
0	57648	96.1	1
0	57710	96.15	1
0	57711	96.15	1
0	57712	96.15	1
0	57713	96.15	1
0	57726	96.2	1
0	57727	96.2	1
0	57728	96.2	1
0	57729	96.2	1
0	57730	96.2	1
0	57731	96.2	1
0	57732	96.2	1
0	57733	96.2	1
0	57754	96.25	1
0	57755	96.25	1
0	57756	96.25	1
0	57757	96.25	1
0	57770	96.3	1
0	57771	96.3	1
0	57772	96.3	1
0	57773	96.3	1
0	57774	96.3	1
0	57775	96.3	1
0	57776	96.3	1
0	57777	96.3	1
0	57798	96.35	1
0	57799	96.35	1
0	57800	96.35	1
0	57801	96.35	1
0	57832	96.4	1
0	57833	96.4	1
0	57834	96.4	1
0	57835	96.4	1
0	57836	96.4	1
0	57837	96.4	1
0	57838	96.4	1
0	57839	96.4	1
0	57860	96.45	1
0	57861	96.45	1
0	57862	96.45	1
0	57863	96.45	1
0	57876	96.5	1
0	57877	96.5	1
0	57878	96.5	1
0	57879	96.5	1
0	57880	96.5	1
0	57881	96.5	1
0	57882	96.5	1
0	57883	96.5	1
0	57922	96.55	1
0	57923	96.55	1
0	57924	96.55	1
0	57925	96.55	1
0	57973	96.6	1
0	57974	96.6	1
0	57975	96.6	1
0	57976	96.6	1
0	57977	96.6	1
0	57978	96.6	1
0	57979	96.6	1
0	57980	96.6	1
0	58001	96.65	1
0	58002	96.65	1
0	58003	96.65	1
0	58004	96.65	1
0	58035	96.7	1
0	58036	96.7	1
0	58037	96.7	1
0	58038	96.7	1
0	58039	96.7	1
0	58040	96.7	1
0	58041	96.7	1
0	58042	96.7	1
0	58063	96.75	1
0	58064	96.75	1
0	58065	96.75	1
0	58066	96.75	1
0	58079	96.8	1
0	58080	96.8	1
0	58081	96.8	1
0	58082	96.8	1
0	58083	96.8	1
0	58084	96.8	1
0	58085	96.8	1
0	58086	96.8	1
0	58107	96.85	1
0	58108	96.85	1
0	58109	96.85	1
0	58110	96.85	1
0	58123	96.9	1
0	58124	96.9	1
0	58125	96.9	1
0	58126	96.9	1
0	58127	96.9	1
0	58128	96.9	1
0	58129	96.9	1
0	58130	96.9	1
0	58169	96.95	1
0	58170	96.95	1
0	58171	96.95	1
0	58172	96.95	1
0	58188	97	1
0	58189	97	1
0	58190	97	1
0	58191	97	1
0	58192	97	1
0	58193	97	1
0	58194	97	1
0	58195	97	1
0	58216	97.05	1
0	58217	97.05	1
0	58218	97.05	1
0	58219	97.05	1
0	58254	97.1	1
0	58255	97.1	1
0	58256	97.1	1
0	58257	97.1	1
0	58258	97.1	1
0	58259	97.1	1
0	58260	97.1	1
0	58261	97.1	1
0	58323	97.15	1
0	58324	97.15	1
0	58325	97.15	1
0	58326	97.15	1
0	58339	97.2	1
0	58340	97.2	1
0	58341	97.2	1
0	58342	97.2	1
0	58343	97.2	1
0	58344	97.2	1
0	58345	97.2	1
0	58346	97.2	1
0	58372	97.25	1
0	58373	97.25	1
0	58374	97.25	1
0	58375	97.25	1
0	58388	97.3	1
0	58389	97.3	1
0	58390	97.3	1
0	58391	97.3	1
0	58392	97.3	1
0	58393	97.3	1
0	58394	97.3	1
0	58395	97.3	1
0	58416	97.35	1
0	58417	97.35	1
0	58418	97.35	1
0	58419	97.35	1
0	58432	97.4	1
0	58433	97.4	1
0	58434	97.4	1
0	58435	97.4	1
0	58436	97.4	1
0	58437	97.4	1
0	58438	97.4	1
0	58439	97.4	1
0	58460	97.45	1
0	58461	97.45	1
0	58462	97.45	1
0	58463	97.45	1
0	58494	97.5	1
0	58495	97.5	1
0	58496	97.5	1
0	58497	97.5	1
0	58498	97.5	1
0	58499	97.5	1
0	58500	97.5	1
0	58501	97.5	1
0	58522	97.55	1
0	58523	97.55	1
0	58524	97.55	1
0	58525	97.55	1
0	58538	97.6	1
0	58539	97.6	1
0	58540	97.6	1
0	58541	97.6	1
0	58542	97.6	1
0	58543	97.6	1
0	58544	97.6	1
0	58545	97.6	1
0	58566	97.65	1
0	58567	97.65	1
0	58568	97.65	1
0	58569	97.65	1
0	58600	97.7	1
0	58601	97.7	1
0	58602	97.7	1
0	58603	97.7	1
0	58604	97.7	1
0	58605	97.7	1
0	58606	97.7	1
0	58607	97.7	1
0	58628	97.75	1
0	58629	97.75	1
0	58630	97.75	1
0	58631	97.75	1
0	58644	97.8	1
0	58645	97.8	1
0	58646	97.8	1
0	58647	97.8	1
0	58648	97.8	1
0	58649	97.8	1
0	58650	97.8	1
0	58651	97.8	1
0	58672	97.85	1
0	58673	97.85	1
0	58674	97.85	1
0	58675	97.85	1
0	58688	97.9	1
0	58689	97.9	1
0	58690	97.9	1
0	58691	97.9	1
0	58692	97.9	1
0	58693	97.9	1
0	58694	97.9	1
0	58695	97.9	1
0	58716	97.95	1
0	58717	97.95	1
0	58718	97.95	1
0	58719	97.95	1
0	58732	98	1
0	58733	98	1
0	58734	98	1
0	58735	98	1
0	58736	98	1
0	58737	98	1
0	58738	98	1
0	58739	98	1
0	58778	98.05	1
0	58779	98.05	1
0	58780	98.05	1
0	58781	98.05	1
0	58798	98.1	1
0	58799	98.1	1
0	58800	98.1	1
0	58801	98.1	1
0	58802	98.1	1
0	58803	98.1	1
0	58804	98.1	1
0	58805	98.1	1
0	58832	98.15	1
0	58833	98.15	1
0	58834	98.15	1
0	58835	98.15	1
0	58848	98.2	1
0	58849	98.2	1
0	58850	98.2	1
0	58851	98.2	1
0	58852	98.2	1
0	58853	98.2	1
0	58854	98.2	1
0	58855	98.2	1
0	58911	98.25	1
0	58912	98.25	1
0	58913	98.25	1
0	58914	98.25	1
0	58927	98.3	1
0	58928	98.3	1
0	58929	98.3	1
0	58930	98.3	1
0	58931	98.3	1
0	58932	98.3	1
0	58933	98.3	1
0	58934	98.3	1
0	58955	98.35	1
0	58956	98.35	1
0	58957	98.35	1
0	58958	98.35	1
0	58971	98.4	1
0	58972	98.4	1
0	58973	98.4	1
0	58974	98.4	1
0	58975	98.4	1
0	58976	98.4	1
0	58977	98.4	1
0	58978	98.4	1
0	58999	98.45	1
0	59000	98.45	1
0	59001	98.45	1
0	59002	98.45	1
0	59015	98.5	1
0	59016	98.5	1
0	59017	98.5	1
0	59018	98.5	1
0	59019	98.5	1
0	59020	98.5	1
0	59021	98.5	1
0	59022	98.5	1
0	59043	98.55	1
0	59044	98.55	1
0	59045	98.55	1
0	59046	98.55	1
0	59077	98.6	1
0	59078	98.6	1
0	59079	98.6	1
0	59080	98.6	1
0	59081	98.6	1
0	59082	98.6	1
0	59083	98.6	1
0	59084	98.6	1
0	59105	98.65	1
0	59106	98.65	1
0	59107	98.65	1
0	59108	98.65	1
0	59139	98.7	1
0	59140	98.7	1
0	59141	98.7	1
0	59142	98.7	1
0	59143	98.7	1
0	59144	98.7	1
0	59145	98.7	1
0	59146	98.7	1
0	59167	98.75	1
0	59168	98.75	1
0	59169	98.75	1
0	59170	98.75	1
0	59201	98.8	1
0	59202	98.8	1
0	59203	98.8	1
0	59204	98.8	1
0	59205	98.8	1
0	59206	98.8	1
0	59207	98.8	1
0	59208	98.8	1
0	59275	98.85	1
0	59276	98.85	1
0	59277	98.85	1
0	59278	98.85	1
0	59297	98.9	1
0	59298	98.9	1
0	59299	98.9	1
0	59300	98.9	1
0	59301	98.9	1
0	59302	98.9	1
0	59303	98.9	1
0	59304	98.9	1
0	59325	98.95	1
0	59326	98.95	1
0	59327	98.95	1
0	59328	98.95	1
0	59341	99	1
0	59342	99	1
0	59343	99	1
0	59344	99	1
0	59345	99	1
0	59346	99	1
0	59347	99	1
0	59348	99	1
0	59369	99.05	1
0	59370	99.05	1
0	59371	99.05	1
0	59372	99.05	1
0	59389	99.1	1
0	59390	99.1	1
0	59391	99.1	1
0	59392	99.1	1
0	59393	99.1	1
0	59394	99.1	1
0	59395	99.1	1
0	59396	99.1	1
0	59441	99.15	1
0	59442	99.15	1
0	59443	99.15	1
0	59444	99.15	1
0	59457	99.2	1
0	59458	99.2	1
0	59459	99.2	1
0	59460	99.2	1
0	59461	99.2	1
0	59462	99.2	1
0	59463	99.2	1
0	59464	99.2	1
0	59503	99.25	1
0	59504	99.25	1
0	59505	99.25	1
0	59506	99.25	1
0	59519	99.3	1
0	59520	99.3	1
0	59521	99.3	1
0	59522	99.3	1
0	59523	99.3	1
0	59524	99.3	1
0	59525	99.3	1
0	59526	99.3	1
0	59582	99.35	1
0	59583	99.35	1
0	59584	99.35	1
0	59585	99.35	1
0	59633	99.4	1
0	59634	99.4	1
0	59635	99.4	1
0	59636	99.4	1
0	59637	99.4	1
0	59638	99.4	1
0	59639	99.4	1
0	59640	99.4	1
0	59661	99.45	1
0	59662	99.45	1
0	59663	99.45	1
0	59664	99.45	1
0	59677	99.5	1
0	59678	99.5	1
0	59679	99.5	1
0	59680	99.5	1
0	59681	99.5	1
0	59682	99.5	1
0	59683	99.5	1
0	59684	99.5	1
0	59705	99.55	1
0	59706	99.55	1
0	59707	99.55	1
0	59708	99.55	1
0	59721	99.6	1
0	59722	99.6	1
0	59723	99.6	1
0	59724	99.6	1
0	59725	99.6	1
0	59726	99.6	1
0	59727	99.6	1
0	59728	99.6	1
0	59749	99.65	1
0	59750	99.65	1
0	59751	99.65	1
0	59752	99.65	1
0	59783	99.7	1
0	59784	99.7	1
0	59785	99.7	1
0	59786	99.7	1
0	59787	99.7	1
0	59788	99.7	1
0	59789	99.7	1
0	59790	99.7	1
0	59811	99.75	1
0	59812	99.75	1
0	59813	99.75	1
0	59814	99.75	1
0	59845	99.8	1
0	59846	99.8	1
0	59847	99.8	1
0	59848	99.8	1
0	59849	99.8	1
0	59850	99.8	1
0	59851	99.8	1
0	59852	99.8	1
0	59873	99.85	1
0	59874	99.85	1
0	59875	99.85	1
0	59876	99.85	1
0	59907	99.9	1
0	59908	99.9	1
0	59909	99.9	1
0	59910	99.9	1
0	59911	99.9	1
0	59912	99.9	1
0	59913	99.9	1
0	59914	99.9	1
0	59953	99.95	1
0	59954	99.95	1
0	59955	99.95	1
0	59956	99.95	1
0	59970	100	1
0	59971	100	1
0	59972	100	1
0	59973	100	1
0	59974	100	1
0	59975	100	1
0	59976	100	1
0	59977	100	1
1	48063	80.1	-nan
1	48064	80.1	-nan
1	48065	80.1	-nan
1	48066	80.1	-nan
1	48650	81.1	-nan
1	48651	81.1	-nan
1	48652	81.1	-nan
1	48653	81.1	-nan
1	49277	82.1	-nan
1	49278	82.1	-nan
1	49279	82.1	-nan
1	49280	82.1	-nan
1	49887	83.1	-nan
1	49888	83.1	-nan
1	49889	83.1	-nan
1	49890	83.1	-nan
1	50515	84.1	-nan
1	50516	84.1	-nan
1	50517	84.1	-nan
1	50518	84.1	-nan
1	51122	85.1	-nan
1	51123	85.1	-nan
1	51124	85.1	-nan
1	51125	85.1	-nan
1	51732	86.1	-nan
1	51733	86.1	-nan
1	51734	86.1	-nan
1	51735	86.1	-nan
1	52297	87.1	-nan
1	52298	87.1	-nan
1	52299	87.1	-nan
1	52300	87.1	-nan
1	52850	88.1	-nan
1	52851	88.1	-nan
1	52852	88.1	-nan
1	52853	88.1	-nan
1	53483	89.1	-nan
1	53484	89.1	-nan
1	53485	89.1	-nan
1	53486	89.1	-nan
1	54067	90.1	-nan
1	54068	90.1	-nan
1	54069	90.1	-nan
1	54070	90.1	-nan
1	54624	91.1	-nan
1	54625	91.1	-nan
1	54626	91.1	-nan
1	54627	91.1	-nan
1	55253	92.1	-nan
1	55254	92.1	-nan
1	55255	92.1	-nan
1	55256	92.1	-nan
1	55811	93.1	-nan
1	55812	93.1	-nan
1	55813	93.1	-nan
1	55814	93.1	-nan
1	56402	94.1	-nan
1	56403	94.1	-nan
1	56404	94.1	-nan
1	56405	94.1	-nan
1	57027	95.1	-nan
1	57028	95.1	-nan
1	57029	95.1	-nan
1	57030	95.1	-nan
1	57637	96.1	-nan
1	57638	96.1	-nan
1	57639	96.1	-nan
1	57640	96.1	-nan
1	58250	97.1	-nan
1	58251	97.1	-nan
1	58252	97.1	-nan
1	58253	97.1	-nan
1	58794	98.1	-nan
1	58795	98.1	-nan
1	58796	98.1	-nan
1	58797	98.1	-nan
1	59385	99.1	-nan
1	59386	99.1	-nan
1	59387	99.1	-nan
1	59388	99.1	-nan
2	48338	80.583626728067	27354
2	48353	80.597466728067	27495
2	48416	80.633409109974	27636
2	48713	81.133626728067	27777
2	48764	81.183409109974	27918
2	49384	82.233626728067	28059
2	49435	82.283409109974	28200
2	50056	83.333626728067	28341
2	50107	83.383409109974	28482
2	50728	84.433626728067	28623
2	50779	84.483409109974	28764
2	51397	85.533626728067	28905
2	51448	85.583409109974	29046
2	51795	86.133409109974	29187
2	52404	87.233409109974	29328
2	53019	88.333409109974	29469
2	53464	89.083626728067	29610
2	53479	89.097466728067	29751
2	53532	89.111306728067	29892
2	53717	89.433409109974	30033
2	54324	90.533409109974	30174
2	54735	91.233626728067	30315
2	54750	91.247466728067	30456
2	54781	91.261306728067	30597
2	55012	91.633409109974	30738
2	55346	92.183409109974	30879
2	55934	93.283409109974	31020
2	56317	93.933626728067	31161
2	56332	93.947466728067	31302
2	56601	94.383409109974	31443
2	56680	94.483626728067	31584
2	57274	95.483409109974	31725
2	57353	95.583626728067	31866
2	57700	96.133626728067	32007
2	57963	96.583409109974	32148
2	58313	97.133409109974	32289
2	58901	98.233409109974	32430
2	59256	98.833626728067	32571
2	59271	98.847466728067	32712
2	59572	99.333409109974	32853
2	59623	99.383626728067	32994
3	48338	80.583626728067	27354
3	48353	80.597466728067	27495
3	48416	80.633409109974	27636
3	48713	81.133626728067	27777
3	48764	81.183409109974	27918
3	49384	82.233626728067	28059
3	49435	82.283409109974	28200
3	50056	83.333626728067	28341
3	50107	83.383409109974	28482
3	50728	84.433626728067	28623
3	50779	84.483409109974	28764
3	51397	85.533626728067	28905
3	51448	85.583409109974	29046
3	51795	86.133409109974	29187
3	52404	87.233409109974	29328
3	53019	88.333409109974	29469
3	53464	89.083626728067	29610
3	53479	89.097466728067	29751
3	53532	89.111306728067	29892
3	53717	89.433409109974	30033
3	54324	90.533409109974	30174
3	54735	91.233626728067	30315
3	54750	91.247466728067	30456
3	54781	91.261306728067	30597
3	55012	91.633409109974	30738
3	55346	92.183409109974	30879
3	55934	93.283409109974	31020
3	56317	93.933626728067	31161
3	56332	93.947466728067	31302
3	56601	94.383409109974	31443
3	56680	94.483626728067	31584
3	57274	95.483409109974	31725
3	57353	95.583626728067	31866
3	57700	96.133626728067	32007
3	57963	96.583409109974	32148
3	58313	97.133409109974	32289
3	58901	98.233409109974	32430
3	59256	98.833626728067	32571
3	59271	98.847466728067	32712
3	59572	99.333409109974	32853
3	59623	99.383626728067	32994

