version 2
run Egw-0-20191001-00:06:23-15585
attr configname Egw
attr datetime 20191001-00:06:23
attr experiment Egw
attr inifile SimV2.ini
attr iterationvars ""
attr iterationvarsf ""
attr measurement ""
attr network NetworkTormV2
attr processid 15585
attr repetition 0
attr replication #0
attr resultdir results
attr runnumber 0
attr seedset 0
param **.mobility.traceFile "\"paths/Egw.movements\""
param **.numNodes 4
param **.application.usedRNG 1
param **.application.dataGenerationInterval 1s
param **.application.dataSizeInBytes 10
param **.application.ttl 999999s
param **application.nodesThatGen true
param **application.nodesGenMsg "\"0,1,2,3\""
param **application.startMultipleMsg false
param **application.numMultipleMsg 100
param **application.hopsListSize 50
param **.application.endGeneratingMsg 99999s
param **.routingLayer "\"RoutingLqeGw\""
param **.routing.maximumCacheSize 5000byte
param **.routing.maximumHopCount 25
param **.routing.useTTL false
param **.routing.waitBFsend 0.5
param **.routing.max_age 999999s
param **.routing.gateway_list "\"\""
param **.routing.actual_gateway "\"\""
param **.routing.gwCheckPeriod 5s
param **.numNodes 2
param **.application.usedRNG 1
param **.application.dataGenerationInterval 1ms
param **.application.dataSizeInBytes 10
param **.application.ttl 999999s
param **application.destinationAddr "\"Wf:00:00:00:00:02\""
param **application.destinationBTAddr "\"Bt:00:00:00:00:02\""
param **application.nodesThatGen true
param **application.nodesGenMsg "\"0\""
param **application.startMultipleMsg true
param **application.numMultipleMsg 100
param **application.hopsListSize 50
param **.application.endGeneratingMsg 999999s
param **.routingLayer "\"RoutingLqeGw\""
param **.routing.maximumCacheSize 5000byte
param **.routing.maximumHopCount 25
param **.routing.useTTL false
param **.routing.waitBFsend 0.5
param **.routing.max_age 999999s
param **.routing.gateway_list "\"Wf:00:00:00:00:02;0|.\""
param **.routing.actual_gateway "\"Wf:00:00:00:00:02\""
param **.routing.gwCheckPeriod 5s
param **.neighboring.antiEntropyInterval 500ms
param **.neighboring.maximumRandomBackoffDuration 1s
param **.neighboring.delayPerDataMsg 0.1
param **neighboring.usedRNG 2
param **.neighboring.GWAddr "\"Wf:00:00:00:00:02\""
param **.neighboring.sendWifiFirst true
param **.neighboring.maxLengthGraph 20
param **.neighboring.max_age 999999s
param **.neighboring.max_absent_time 1s
param **.wirelessIfc.wirelessRange 40m
param **.wirelessIfc.neighbourScanInterval 50ms
param **.wirelessIfc.bandwidthBitRate 100000bps
param **.wirelessIfc.wirelessHeaderSize 32byte
param **.wirelessIfc.minSSI -90
param **.wirelessIfc.limitQueueTime 400ms
param **.wirelessIfc.my_limit_rate 0bps
param **.bluetoothIfc.wirelessRange 40m
param **.bluetoothIfc.neighbourScanInterval 100ms
param **.bluetoothIfc.bandwidthBitRate 100000bps
param **.bluetoothIfc.wirelessHeaderSize 16byte
param **.bluetoothIfc.minSSI -90
param **.mobilityType "\"BonnMotionMobility\""
param **.mobility.traceFile "\"paths/Moves2.movements\""
param **.mobility.is3D false
param **.mobility.nodeId -1

vector 0 NetworkTormV2 neighbourhoodSize:vector ETV
attr source neighbourhoodSize
vector 1 NetworkTormV2 deliveryRatio:vector ETV
attr source sum(totalDataBytesReceived)/sum(totalDataBytesReceivableByAllNodes)
vector 2 NetworkTormV2 dataBytesReceivedSum:vector ETV
attr source sum(dataBytesReceived)
vector 3 NetworkTormV2 totalBytesReceivedSum:vector ETV
attr source sum(totalBytesReceived)
0	13	0.05	1
0	14	0.05	2
0	15	0.05	1
0	16	0.05	0
0	30	0.1	1
0	32	0.1	2
0	34	0.1	1
0	36	0.1	0
0	38	0.1	1
0	39	0.1	2
0	40	0.1	1
0	41	0.1	0
0	64	0.15	1
0	65	0.15	2
0	66	0.15	1
0	67	0.15	0
0	80	0.2	1
0	81	0.2	2
0	82	0.2	1
0	83	0.2	0
0	85	0.2	1
0	86	0.2	2
0	87	0.2	1
0	88	0.2	0
0	107	0.25	1
0	108	0.25	2
0	109	0.25	1
0	110	0.25	0
0	123	0.3	1
0	124	0.3	2
0	125	0.3	1
0	126	0.3	0
0	128	0.3	1
0	129	0.3	2
0	130	0.3	1
0	131	0.3	0
0	150	0.35	1
0	151	0.35	2
0	152	0.35	1
0	153	0.35	0
0	166	0.4	1
0	167	0.4	2
0	168	0.4	1
0	169	0.4	0
0	171	0.4	1
0	172	0.4	2
0	173	0.4	1
0	174	0.4	0
0	193	0.45	1
0	194	0.45	2
0	195	0.45	1
0	196	0.45	0
0	209	0.5	1
0	210	0.5	2
0	211	0.5	1
0	212	0.5	0
0	214	0.5	1
0	215	0.5	2
0	216	0.5	1
0	217	0.5	0
0	236	0.55	1
0	237	0.55	2
0	238	0.55	1
0	239	0.55	0
0	252	0.6	1
0	253	0.6	2
0	254	0.6	1
0	255	0.6	0
0	257	0.6	1
0	258	0.6	2
0	259	0.6	1
0	260	0.6	0
0	279	0.65	1
0	280	0.65	2
0	281	0.65	1
0	282	0.65	0
0	295	0.7	1
0	296	0.7	2
0	297	0.7	1
0	298	0.7	0
0	300	0.7	1
0	301	0.7	2
0	302	0.7	1
0	303	0.7	0
0	322	0.75	1
0	323	0.75	2
0	324	0.75	1
0	325	0.75	0
0	338	0.8	1
0	339	0.8	2
0	340	0.8	1
0	341	0.8	0
0	343	0.8	1
0	344	0.8	2
0	345	0.8	1
0	346	0.8	0
0	365	0.85	1
0	366	0.85	2
0	367	0.85	1
0	368	0.85	0
0	381	0.9	1
0	382	0.9	2
0	383	0.9	1
0	384	0.9	0
0	386	0.9	1
0	387	0.9	2
0	388	0.9	1
0	389	0.9	0
0	408	0.95	1
0	409	0.95	2
0	410	0.95	1
0	411	0.95	0
0	424	1	1
0	425	1	2
0	426	1	1
0	427	1	0
0	429	1	1
0	430	1	2
0	431	1	1
0	432	1	0
0	451	1.05	1
0	452	1.05	2
0	453	1.05	1
0	454	1.05	0
0	471	1.1	1
0	472	1.1	2
0	473	1.1	1
0	474	1.1	0
0	476	1.1	1
0	477	1.1	2
0	478	1.1	1
0	479	1.1	0
0	558	1.15	1
0	559	1.15	2
0	560	1.15	1
0	561	1.15	0
0	574	1.2	1
0	575	1.2	2
0	576	1.2	1
0	577	1.2	0
0	579	1.2	1
0	580	1.2	2
0	581	1.2	1
0	582	1.2	0
0	601	1.25	1
0	602	1.25	2
0	603	1.25	1
0	604	1.25	0
0	617	1.3	1
0	618	1.3	2
0	619	1.3	1
0	620	1.3	0
0	622	1.3	1
0	623	1.3	2
0	624	1.3	1
0	625	1.3	0
0	644	1.35	1
0	645	1.35	2
0	646	1.35	1
0	647	1.35	0
0	660	1.4	1
0	661	1.4	2
0	662	1.4	1
0	663	1.4	0
0	665	1.4	1
0	666	1.4	2
0	667	1.4	1
0	668	1.4	0
0	687	1.45	1
0	688	1.45	2
0	689	1.45	1
0	690	1.45	0
0	703	1.5	1
0	704	1.5	2
0	705	1.5	1
0	706	1.5	0
0	708	1.5	1
0	709	1.5	2
0	710	1.5	1
0	711	1.5	0
0	730	1.55	1
0	731	1.55	2
0	732	1.55	1
0	733	1.55	0
0	746	1.6	1
0	747	1.6	2
0	748	1.6	1
0	749	1.6	0
0	751	1.6	1
0	752	1.6	2
0	753	1.6	1
0	754	1.6	0
0	773	1.65	1
0	774	1.65	2
0	775	1.65	1
0	776	1.65	0
0	845	1.7	1
0	846	1.7	2
0	847	1.7	1
0	848	1.7	0
0	850	1.7	1
0	851	1.7	2
0	852	1.7	1
0	853	1.7	0
0	872	1.75	1
0	873	1.75	2
0	874	1.75	1
0	875	1.75	0
0	888	1.8	1
0	889	1.8	2
0	890	1.8	1
0	891	1.8	0
0	893	1.8	1
0	894	1.8	2
0	895	1.8	1
0	896	1.8	0
0	915	1.85	1
0	916	1.85	2
0	917	1.85	1
0	918	1.85	0
0	931	1.9	1
0	932	1.9	2
0	933	1.9	1
0	934	1.9	0
0	936	1.9	1
0	937	1.9	2
0	938	1.9	1
0	939	1.9	0
0	958	1.95	1
0	959	1.95	2
0	960	1.95	1
0	961	1.95	0
0	974	2	1
0	975	2	2
0	976	2	1
0	977	2	0
0	979	2	1
0	980	2	2
0	981	2	1
0	982	2	0
0	1001	2.05	1
0	1002	2.05	2
0	1003	2.05	1
0	1004	2.05	0
0	1021	2.1	1
0	1022	2.1	2
0	1023	2.1	1
0	1024	2.1	0
0	1026	2.1	1
0	1027	2.1	2
0	1028	2.1	1
0	1029	2.1	0
0	1052	2.15	1
0	1053	2.15	2
0	1054	2.15	1
0	1055	2.15	0
0	1068	2.2	1
0	1069	2.2	2
0	1070	2.2	1
0	1071	2.2	0
0	1073	2.2	1
0	1074	2.2	2
0	1075	2.2	1
0	1076	2.2	0
0	1151	2.25	1
0	1152	2.25	2
0	1153	2.25	1
0	1154	2.25	0
0	1167	2.3	1
0	1168	2.3	2
0	1169	2.3	1
0	1170	2.3	0
0	1172	2.3	1
0	1173	2.3	2
0	1174	2.3	1
0	1175	2.3	0
0	1194	2.35	1
0	1195	2.35	2
0	1196	2.35	1
0	1197	2.35	0
0	1210	2.4	1
0	1211	2.4	2
0	1212	2.4	1
0	1213	2.4	0
0	1215	2.4	1
0	1216	2.4	2
0	1217	2.4	1
0	1218	2.4	0
0	1237	2.45	1
0	1238	2.45	2
0	1239	2.45	1
0	1240	2.45	0
0	1253	2.5	1
0	1254	2.5	2
0	1255	2.5	1
0	1256	2.5	0
0	1258	2.5	1
0	1259	2.5	2
0	1260	2.5	1
0	1261	2.5	0
0	1280	2.55	1
0	1281	2.55	2
0	1282	2.55	1
0	1283	2.55	0
0	1296	2.6	1
0	1297	2.6	2
0	1298	2.6	1
0	1299	2.6	0
0	1301	2.6	1
0	1302	2.6	2
0	1303	2.6	1
0	1304	2.6	0
0	1323	2.65	1
0	1324	2.65	2
0	1325	2.65	1
0	1326	2.65	0
0	1339	2.7	1
0	1340	2.7	2
0	1341	2.7	1
0	1342	2.7	0
0	1344	2.7	1
0	1345	2.7	2
0	1346	2.7	1
0	1347	2.7	0
0	1366	2.75	1
0	1367	2.75	2
0	1368	2.75	1
0	1369	2.75	0
0	1438	2.8	1
0	1439	2.8	2
0	1440	2.8	1
0	1441	2.8	0
0	1443	2.8	1
0	1444	2.8	2
0	1445	2.8	1
0	1446	2.8	0
0	1465	2.85	1
0	1466	2.85	2
0	1467	2.85	1
0	1468	2.85	0
0	1481	2.9	1
0	1482	2.9	2
0	1483	2.9	1
0	1484	2.9	0
0	1486	2.9	1
0	1487	2.9	2
0	1488	2.9	1
0	1489	2.9	0
0	1508	2.95	1
0	1509	2.95	2
0	1510	2.95	1
0	1511	2.95	0
0	1524	3	1
0	1525	3	2
0	1526	3	1
0	1527	3	0
0	1529	3	1
0	1530	3	2
0	1531	3	1
0	1532	3	0
0	1551	3.05	1
0	1552	3.05	2
0	1553	3.05	1
0	1554	3.05	0
0	1571	3.1	1
0	1572	3.1	2
0	1573	3.1	1
0	1574	3.1	0
0	1576	3.1	1
0	1577	3.1	2
0	1578	3.1	1
0	1579	3.1	0
0	1602	3.15	1
0	1603	3.15	2
0	1604	3.15	1
0	1605	3.15	0
0	1618	3.2	1
0	1619	3.2	2
0	1620	3.2	1
0	1621	3.2	0
0	1623	3.2	1
0	1624	3.2	2
0	1625	3.2	1
0	1626	3.2	0
0	1645	3.25	1
0	1646	3.25	2
0	1647	3.25	1
0	1648	3.25	0
0	1661	3.3	1
0	1662	3.3	2
0	1663	3.3	1
0	1664	3.3	0
0	1666	3.3	1
0	1667	3.3	2
0	1668	3.3	1
0	1669	3.3	0
0	1744	3.35	1
0	1745	3.35	2
0	1746	3.35	1
0	1747	3.35	0
0	1760	3.4	1
0	1761	3.4	2
0	1762	3.4	1
0	1763	3.4	0
0	1765	3.4	1
0	1766	3.4	2
0	1767	3.4	1
0	1768	3.4	0
0	1787	3.45	1
0	1788	3.45	2
0	1789	3.45	1
0	1790	3.45	0
0	1803	3.5	1
0	1804	3.5	2
0	1805	3.5	1
0	1806	3.5	0
0	1808	3.5	1
0	1809	3.5	2
0	1810	3.5	1
0	1811	3.5	0
0	1830	3.55	1
0	1831	3.55	2
0	1832	3.55	1
0	1833	3.55	0
0	1846	3.6	1
0	1847	3.6	2
0	1848	3.6	1
0	1849	3.6	0
0	1851	3.6	1
0	1852	3.6	2
0	1853	3.6	1
0	1854	3.6	0
0	1873	3.65	1
0	1874	3.65	2
0	1875	3.65	1
0	1876	3.65	0
0	1889	3.7	1
0	1890	3.7	2
0	1891	3.7	1
0	1892	3.7	0
0	1894	3.7	1
0	1895	3.7	2
0	1896	3.7	1
0	1897	3.7	0
0	1916	3.75	1
0	1917	3.75	2
0	1918	3.75	1
0	1919	3.75	0
0	1932	3.8	1
0	1933	3.8	2
0	1934	3.8	1
0	1935	3.8	0
0	1937	3.8	1
0	1938	3.8	2
0	1939	3.8	1
0	1940	3.8	0
0	1959	3.85	1
0	1960	3.85	2
0	1961	3.85	1
0	1962	3.85	0
0	2027	3.9	1
0	2028	3.9	2
0	2029	3.9	1
0	2030	3.9	0
0	2032	3.9	1
0	2033	3.9	2
0	2034	3.9	1
0	2035	3.9	0
0	2054	3.95	1
0	2055	3.95	2
0	2056	3.95	1
0	2057	3.95	0
0	2070	4	1
0	2071	4	2
0	2072	4	1
0	2073	4	0
0	2075	4	1
0	2076	4	2
0	2077	4	1
0	2078	4	0
0	2097	4.05	1
0	2098	4.05	2
0	2099	4.05	1
0	2100	4.05	0
0	2117	4.1	1
0	2118	4.1	2
0	2119	4.1	1
0	2120	4.1	0
0	2122	4.1	1
0	2123	4.1	2
0	2124	4.1	1
0	2125	4.1	0
0	2148	4.15	1
0	2149	4.15	2
0	2150	4.15	1
0	2151	4.15	0
0	2164	4.2	1
0	2165	4.2	2
0	2166	4.2	1
0	2167	4.2	0
0	2169	4.2	1
0	2170	4.2	2
0	2171	4.2	1
0	2172	4.2	0
0	2191	4.25	1
0	2192	4.25	2
0	2193	4.25	1
0	2194	4.25	0
0	2207	4.3	1
0	2208	4.3	2
0	2209	4.3	1
0	2210	4.3	0
0	2212	4.3	1
0	2213	4.3	2
0	2214	4.3	1
0	2215	4.3	0
0	2234	4.35	1
0	2235	4.35	2
0	2236	4.35	1
0	2237	4.35	0
0	2250	4.4	1
0	2251	4.4	2
0	2252	4.4	1
0	2253	4.4	0
0	2255	4.4	1
0	2256	4.4	2
0	2257	4.4	1
0	2258	4.4	0
0	2333	4.45	1
0	2334	4.45	2
0	2335	4.45	1
0	2336	4.45	0
0	2349	4.5	1
0	2350	4.5	2
0	2351	4.5	1
0	2352	4.5	0
0	2354	4.5	1
0	2355	4.5	2
0	2356	4.5	1
0	2357	4.5	0
0	2376	4.55	1
0	2377	4.55	2
0	2378	4.55	1
0	2379	4.55	0
0	2392	4.6	1
0	2393	4.6	2
0	2394	4.6	1
0	2395	4.6	0
0	2397	4.6	1
0	2398	4.6	2
0	2399	4.6	1
0	2400	4.6	0
0	2419	4.65	1
0	2420	4.65	2
0	2421	4.65	1
0	2422	4.65	0
0	2435	4.7	1
0	2436	4.7	2
0	2437	4.7	1
0	2438	4.7	0
0	2440	4.7	1
0	2441	4.7	2
0	2442	4.7	1
0	2443	4.7	0
0	2462	4.75	1
0	2463	4.75	2
0	2464	4.75	1
0	2465	4.75	0
0	2478	4.8	1
0	2479	4.8	2
0	2480	4.8	1
0	2481	4.8	0
0	2483	4.8	1
0	2484	4.8	2
0	2485	4.8	1
0	2486	4.8	0
0	2505	4.85	1
0	2506	4.85	2
0	2507	4.85	1
0	2508	4.85	0
0	2521	4.9	1
0	2522	4.9	2
0	2523	4.9	1
0	2524	4.9	0
0	2526	4.9	1
0	2527	4.9	2
0	2528	4.9	1
0	2529	4.9	0
0	2548	4.95	1
0	2549	4.95	2
0	2550	4.95	1
0	2551	4.95	0
0	2613	5	1
0	2614	5	2
0	2615	5	1
0	2616	5	0
0	2618	5	1
0	2619	5	2
0	2620	5	1
0	2621	5	0
0	2640	5.05	1
0	2641	5.05	2
0	2642	5.05	1
0	2643	5.05	0
0	2660	5.1	1
0	2661	5.1	2
0	2662	5.1	1
0	2663	5.1	0
0	2665	5.1	1
0	2666	5.1	2
0	2667	5.1	1
0	2668	5.1	0
0	2691	5.15	1
0	2692	5.15	2
0	2693	5.15	1
0	2694	5.15	0
0	2707	5.2	1
0	2708	5.2	2
0	2709	5.2	1
0	2710	5.2	0
0	2712	5.2	1
0	2713	5.2	2
0	2714	5.2	1
0	2715	5.2	0
0	2734	5.25	1
0	2735	5.25	2
0	2736	5.25	1
0	2737	5.25	0
0	2750	5.3	1
0	2751	5.3	2
0	2752	5.3	1
0	2753	5.3	0
0	2755	5.3	1
0	2756	5.3	2
0	2757	5.3	1
0	2758	5.3	0
0	2777	5.35	1
0	2778	5.35	2
0	2779	5.35	1
0	2780	5.35	0
0	2793	5.4	1
0	2794	5.4	2
0	2795	5.4	1
0	2796	5.4	0
0	2798	5.4	1
0	2799	5.4	2
0	2800	5.4	1
0	2801	5.4	0
0	2820	5.45	1
0	2821	5.45	2
0	2822	5.45	1
0	2823	5.45	0
0	2839	5.5	1
0	2840	5.5	2
0	2841	5.5	1
0	2842	5.5	0
0	2844	5.5	1
0	2845	5.5	2
0	2846	5.5	1
0	2847	5.5	0
0	2963	5.55	1
0	2964	5.55	2
0	2965	5.55	1
0	2966	5.55	0
0	3045	5.6	1
0	3046	5.6	2
0	3047	5.6	1
0	3048	5.6	0
0	3050	5.6	1
0	3051	5.6	2
0	3052	5.6	1
0	3053	5.6	0
0	3083	5.65	1
0	3084	5.65	2
0	3085	5.65	1
0	3086	5.65	0
0	3113	5.7	1
0	3114	5.7	2
0	3115	5.7	1
0	3116	5.7	0
0	3118	5.7	1
0	3119	5.7	2
0	3120	5.7	1
0	3121	5.7	0
0	3140	5.75	1
0	3141	5.75	2
0	3142	5.75	1
0	3143	5.75	0
0	3156	5.8	1
0	3157	5.8	2
0	3158	5.8	1
0	3159	5.8	0
0	3161	5.8	1
0	3162	5.8	2
0	3163	5.8	1
0	3164	5.8	0
0	3183	5.85	1
0	3184	5.85	2
0	3185	5.85	1
0	3186	5.85	0
0	3199	5.9	1
0	3200	5.9	2
0	3201	5.9	1
0	3202	5.9	0
0	3204	5.9	1
0	3205	5.9	2
0	3206	5.9	1
0	3207	5.9	0
0	3226	5.95	1
0	3227	5.95	2
0	3228	5.95	1
0	3229	5.95	0
0	3245	6	1
0	3246	6	2
0	3247	6	1
0	3248	6	0
0	3250	6	1
0	3251	6	2
0	3252	6	1
0	3253	6	0
0	3272	6.05	1
0	3273	6.05	2
0	3274	6.05	1
0	3275	6.05	0
0	3349	6.1	1
0	3350	6.1	2
0	3351	6.1	1
0	3352	6.1	0
0	3354	6.1	1
0	3355	6.1	2
0	3356	6.1	1
0	3357	6.1	0
0	3380	6.15	1
0	3381	6.15	2
0	3382	6.15	1
0	3383	6.15	0
0	3396	6.2	1
0	3397	6.2	2
0	3398	6.2	1
0	3399	6.2	0
0	3401	6.2	1
0	3402	6.2	2
0	3403	6.2	1
0	3404	6.2	0
0	3437	6.25	1
0	3438	6.25	2
0	3439	6.25	1
0	3440	6.25	0
0	3453	6.3	1
0	3454	6.3	2
0	3455	6.3	1
0	3456	6.3	0
0	3458	6.3	1
0	3459	6.3	2
0	3460	6.3	1
0	3461	6.3	0
0	3480	6.35	1
0	3481	6.35	2
0	3482	6.35	1
0	3483	6.35	0
0	3496	6.4	1
0	3497	6.4	2
0	3498	6.4	1
0	3499	6.4	0
0	3501	6.4	1
0	3502	6.4	2
0	3503	6.4	1
0	3504	6.4	0
0	3523	6.45	1
0	3524	6.45	2
0	3525	6.45	1
0	3526	6.45	0
0	3542	6.5	1
0	3543	6.5	2
0	3544	6.5	1
0	3545	6.5	0
0	3547	6.5	1
0	3548	6.5	2
0	3549	6.5	1
0	3550	6.5	0
0	3569	6.55	1
0	3570	6.55	2
0	3571	6.55	1
0	3572	6.55	0
0	3585	6.6	1
0	3586	6.6	2
0	3587	6.6	1
0	3588	6.6	0
0	3590	6.6	1
0	3591	6.6	2
0	3592	6.6	1
0	3593	6.6	0
0	3679	6.65	1
0	3680	6.65	2
0	3681	6.65	1
0	3682	6.65	0
0	3695	6.7	1
0	3696	6.7	2
0	3697	6.7	1
0	3698	6.7	0
0	3700	6.7	1
0	3701	6.7	2
0	3702	6.7	1
0	3703	6.7	0
0	3722	6.75	1
0	3723	6.75	2
0	3724	6.75	1
0	3725	6.75	0
0	3752	6.8	1
0	3753	6.8	2
0	3754	6.8	1
0	3755	6.8	0
0	3757	6.8	1
0	3758	6.8	2
0	3759	6.8	1
0	3760	6.8	0
0	3779	6.85	1
0	3780	6.85	2
0	3781	6.85	1
0	3782	6.85	0
0	3795	6.9	1
0	3796	6.9	2
0	3797	6.9	1
0	3798	6.9	0
0	3800	6.9	1
0	3801	6.9	2
0	3802	6.9	1
0	3803	6.9	0
0	3822	6.95	1
0	3823	6.95	2
0	3824	6.95	1
0	3825	6.95	0
0	3841	7	1
0	3842	7	2
0	3843	7	1
0	3844	7	0
0	3846	7	1
0	3847	7	2
0	3848	7	1
0	3849	7	0
0	3868	7.05	1
0	3869	7.05	2
0	3870	7.05	1
0	3871	7.05	0
0	3888	7.1	1
0	3889	7.1	2
0	3890	7.1	1
0	3891	7.1	0
0	3893	7.1	1
0	3894	7.1	2
0	3895	7.1	1
0	3896	7.1	0
0	3919	7.15	1
0	3920	7.15	2
0	3921	7.15	1
0	3922	7.15	0
0	3975	7.2	1
0	3976	7.2	2
0	3977	7.2	1
0	3978	7.2	0
0	3980	7.2	1
0	3981	7.2	2
0	3982	7.2	1
0	3983	7.2	0
0	4002	7.25	1
0	4003	7.25	2
0	4004	7.25	1
0	4005	7.25	0
0	4018	7.3	1
0	4019	7.3	2
0	4020	7.3	1
0	4021	7.3	0
0	4023	7.3	1
0	4024	7.3	2
0	4025	7.3	1
0	4026	7.3	0
0	4062	7.35	1
0	4063	7.35	2
0	4064	7.35	1
0	4065	7.35	0
0	4078	7.4	1
0	4079	7.4	2
0	4080	7.4	1
0	4081	7.4	0
0	4083	7.4	1
0	4084	7.4	2
0	4085	7.4	1
0	4086	7.4	0
0	4105	7.45	1
0	4106	7.45	2
0	4107	7.45	1
0	4108	7.45	0
0	4121	7.5	1
0	4122	7.5	2
0	4123	7.5	1
0	4124	7.5	0
0	4126	7.5	1
0	4127	7.5	2
0	4128	7.5	1
0	4129	7.5	0
0	4148	7.55	1
0	4149	7.55	2
0	4150	7.55	1
0	4151	7.55	0
0	4164	7.6	1
0	4165	7.6	2
0	4166	7.6	1
0	4167	7.6	0
0	4169	7.6	1
0	4170	7.6	2
0	4171	7.6	1
0	4172	7.6	0
0	4191	7.65	1
0	4192	7.65	2
0	4193	7.65	1
0	4194	7.65	0
0	4207	7.7	1
0	4208	7.7	2
0	4209	7.7	1
0	4210	7.7	0
0	4212	7.7	1
0	4213	7.7	2
0	4214	7.7	1
0	4215	7.7	0
0	4248	7.75	1
0	4249	7.75	2
0	4250	7.75	1
0	4251	7.75	0
0	4264	7.8	1
0	4265	7.8	2
0	4266	7.8	1
0	4267	7.8	0
0	4269	7.8	1
0	4270	7.8	2
0	4271	7.8	1
0	4272	7.8	0
0	4291	7.85	1
0	4292	7.85	2
0	4293	7.85	1
0	4294	7.85	0
0	4321	7.9	1
0	4322	7.9	2
0	4323	7.9	1
0	4324	7.9	0
0	4326	7.9	1
0	4327	7.9	2
0	4328	7.9	1
0	4329	7.9	0
0	4348	7.95	1
0	4349	7.95	2
0	4350	7.95	1
0	4351	7.95	0
0	4364	8	1
0	4365	8	2
0	4366	8	1
0	4367	8	0
0	4369	8	1
0	4370	8	2
0	4371	8	1
0	4372	8	0
0	4391	8.05	1
0	4392	8.05	2
0	4393	8.05	1
0	4394	8.05	0
0	4411	8.1	1
0	4412	8.1	2
0	4413	8.1	1
0	4414	8.1	0
0	4416	8.1	1
0	4417	8.1	2
0	4418	8.1	1
0	4419	8.1	0
0	4442	8.15	1
0	4443	8.15	2
0	4444	8.15	1
0	4445	8.15	0
0	4458	8.2	1
0	4459	8.2	2
0	4460	8.2	1
0	4461	8.2	0
0	4463	8.2	1
0	4464	8.2	2
0	4465	8.2	1
0	4466	8.2	0
0	4485	8.25	1
0	4486	8.25	2
0	4487	8.25	1
0	4488	8.25	0
0	4511	8.3	1
0	4512	8.3	2
0	4513	8.3	1
0	4514	8.3	0
0	4516	8.3	1
0	4517	8.3	2
0	4518	8.3	1
0	4519	8.3	0
0	4538	8.35	1
0	4539	8.35	2
0	4540	8.35	1
0	4541	8.35	0
0	4554	8.4	1
0	4555	8.4	2
0	4556	8.4	1
0	4557	8.4	0
0	4559	8.4	1
0	4560	8.4	2
0	4561	8.4	1
0	4562	8.4	0
0	4595	8.45	1
0	4596	8.45	2
0	4597	8.45	1
0	4598	8.45	0
0	4611	8.5	1
0	4612	8.5	2
0	4613	8.5	1
0	4614	8.5	0
0	4616	8.5	1
0	4617	8.5	2
0	4618	8.5	1
0	4619	8.5	0
0	4638	8.55	1
0	4639	8.55	2
0	4640	8.55	1
0	4641	8.55	0
0	4654	8.6	1
0	4655	8.6	2
0	4656	8.6	1
0	4657	8.6	0
0	4659	8.6	1
0	4660	8.6	2
0	4661	8.6	1
0	4662	8.6	0
0	4681	8.65	1
0	4682	8.65	2
0	4683	8.65	1
0	4684	8.65	0
0	4697	8.7	1
0	4698	8.7	2
0	4699	8.7	1
0	4700	8.7	0
0	4702	8.7	1
0	4703	8.7	2
0	4704	8.7	1
0	4705	8.7	0
0	4724	8.75	1
0	4725	8.75	2
0	4726	8.75	1
0	4727	8.75	0
0	4754	8.8	1
0	4755	8.8	2
0	4756	8.8	1
0	4757	8.8	0
0	4759	8.8	1
0	4760	8.8	2
0	4761	8.8	1
0	4762	8.8	0
0	4807	8.85	1
0	4808	8.85	2
0	4809	8.85	1
0	4810	8.85	0
0	4823	8.9	1
0	4824	8.9	2
0	4825	8.9	1
0	4826	8.9	0
0	4828	8.9	1
0	4829	8.9	2
0	4830	8.9	1
0	4831	8.9	0
0	4888	8.95	1
0	4889	8.95	2
0	4890	8.95	1
0	4891	8.95	0
0	4918	9	1
0	4919	9	2
0	4920	9	1
0	4921	9	0
0	4923	9	1
0	4924	9	2
0	4925	9	1
0	4926	9	0
0	4945	9.05	1
0	4946	9.05	2
0	4947	9.05	1
0	4948	9.05	0
0	4965	9.1	1
0	4966	9.1	2
0	4967	9.1	1
0	4968	9.1	0
0	4970	9.1	1
0	4971	9.1	2
0	4972	9.1	1
0	4973	9.1	0
0	4996	9.15	1
0	4997	9.15	2
0	4998	9.15	1
0	4999	9.15	0
0	5012	9.2	1
0	5013	9.2	2
0	5014	9.2	1
0	5015	9.2	0
0	5017	9.2	1
0	5018	9.2	2
0	5019	9.2	1
0	5020	9.2	0
0	5039	9.25	1
0	5040	9.25	2
0	5041	9.25	1
0	5042	9.25	0
0	5055	9.3	1
0	5056	9.3	2
0	5057	9.3	1
0	5058	9.3	0
0	5060	9.3	1
0	5061	9.3	2
0	5062	9.3	1
0	5063	9.3	0
0	5096	9.35	1
0	5097	9.35	2
0	5098	9.35	1
0	5099	9.35	0
0	5122	9.4	1
0	5123	9.4	2
0	5124	9.4	1
0	5125	9.4	0
0	5127	9.4	1
0	5128	9.4	2
0	5129	9.4	1
0	5130	9.4	0
0	5149	9.45	1
0	5150	9.45	2
0	5151	9.45	1
0	5152	9.45	0
0	5191	9.5	1
0	5192	9.5	2
0	5193	9.5	1
0	5194	9.5	0
0	5196	9.5	1
0	5197	9.5	2
0	5198	9.5	1
0	5199	9.5	0
0	5232	9.55	1
0	5233	9.55	2
0	5234	9.55	1
0	5235	9.55	0
0	5248	9.6	1
0	5249	9.6	2
0	5250	9.6	1
0	5251	9.6	0
0	5253	9.6	1
0	5254	9.6	2
0	5255	9.6	1
0	5256	9.6	0
0	5275	9.65	1
0	5276	9.65	2
0	5277	9.65	1
0	5278	9.65	0
0	5291	9.7	1
0	5292	9.7	2
0	5293	9.7	1
0	5294	9.7	0
0	5296	9.7	1
0	5297	9.7	2
0	5298	9.7	1
0	5299	9.7	0
0	5318	9.75	1
0	5319	9.75	2
0	5320	9.75	1
0	5321	9.75	0
0	5334	9.8	1
0	5335	9.8	2
0	5336	9.8	1
0	5337	9.8	0
0	5339	9.8	1
0	5340	9.8	2
0	5341	9.8	1
0	5342	9.8	0
0	5361	9.85	1
0	5362	9.85	2
0	5363	9.85	1
0	5364	9.85	0
0	5391	9.9	1
0	5392	9.9	2
0	5393	9.9	1
0	5394	9.9	0
0	5396	9.9	1
0	5397	9.9	2
0	5398	9.9	1
0	5399	9.9	0
0	5444	9.95	1
0	5445	9.95	2
0	5446	9.95	1
0	5447	9.95	0
0	5461	10	1
0	5462	10	2
0	5463	10	1
0	5464	10	0
0	5466	10	1
0	5467	10	2
0	5468	10	1
0	5469	10	0
0	5502	10.05	1
0	5503	10.05	2
0	5504	10.05	1
0	5505	10.05	0
0	5536	10.1	1
0	5537	10.1	2
0	5538	10.1	1
0	5539	10.1	0
0	5541	10.1	1
0	5542	10.1	2
0	5543	10.1	1
0	5544	10.1	0
0	5567	10.15	1
0	5568	10.15	2
0	5569	10.15	1
0	5570	10.15	0
0	5583	10.2	1
0	5584	10.2	2
0	5585	10.2	1
0	5586	10.2	0
0	5588	10.2	1
0	5589	10.2	2
0	5590	10.2	1
0	5591	10.2	0
0	5610	10.25	1
0	5611	10.25	2
0	5612	10.25	1
0	5613	10.25	0
0	5626	10.3	1
0	5627	10.3	2
0	5628	10.3	1
0	5629	10.3	0
0	5631	10.3	1
0	5632	10.3	2
0	5633	10.3	1
0	5634	10.3	0
0	5653	10.35	1
0	5654	10.35	2
0	5655	10.35	1
0	5656	10.35	0
0	5669	10.4	1
0	5670	10.4	2
0	5671	10.4	1
0	5672	10.4	0
0	5674	10.4	1
0	5675	10.4	2
0	5676	10.4	1
0	5677	10.4	0
0	5710	10.45	1
0	5711	10.45	2
0	5712	10.45	1
0	5713	10.45	0
0	5752	10.5	1
0	5753	10.5	2
0	5754	10.5	1
0	5755	10.5	0
0	5757	10.5	1
0	5758	10.5	2
0	5759	10.5	1
0	5760	10.5	0
0	5779	10.55	1
0	5780	10.55	2
0	5781	10.55	1
0	5782	10.55	0
0	5821	10.6	1
0	5822	10.6	2
0	5823	10.6	1
0	5824	10.6	0
0	5826	10.6	1
0	5827	10.6	2
0	5828	10.6	1
0	5829	10.6	0
0	5862	10.65	1
0	5863	10.65	2
0	5864	10.65	1
0	5865	10.65	0
0	5878	10.7	1
0	5879	10.7	2
0	5880	10.7	1
0	5881	10.7	0
0	5883	10.7	1
0	5884	10.7	2
0	5885	10.7	1
0	5886	10.7	0
0	5905	10.75	1
0	5906	10.75	2
0	5907	10.75	1
0	5908	10.75	0
0	5921	10.8	1
0	5922	10.8	2
0	5923	10.8	1
0	5924	10.8	0
0	5926	10.8	1
0	5927	10.8	2
0	5928	10.8	1
0	5929	10.8	0
0	5948	10.85	1
0	5949	10.85	2
0	5950	10.85	1
0	5951	10.85	0
0	5964	10.9	1
0	5965	10.9	2
0	5966	10.9	1
0	5967	10.9	0
0	5969	10.9	1
0	5970	10.9	2
0	5971	10.9	1
0	5972	10.9	0
0	5991	10.95	1
0	5992	10.95	2
0	5993	10.95	1
0	5994	10.95	0
0	6021	11	1
0	6022	11	2
0	6023	11	1
0	6024	11	0
0	6026	11	1
0	6027	11	2
0	6028	11	1
0	6029	11	0
0	6062	11.05	1
0	6063	11.05	2
0	6064	11.05	1
0	6065	11.05	0
0	6082	11.1	1
0	6083	11.1	2
0	6084	11.1	1
0	6085	11.1	0
0	6087	11.1	1
0	6088	11.1	2
0	6089	11.1	1
0	6090	11.1	0
0	6139	11.15	1
0	6140	11.15	2
0	6141	11.15	1
0	6142	11.15	0
0	6158	11.2	1
0	6159	11.2	2
0	6160	11.2	1
0	6161	11.2	0
0	6163	11.2	1
0	6164	11.2	2
0	6165	11.2	1
0	6166	11.2	0
0	6185	11.25	1
0	6186	11.25	2
0	6187	11.25	1
0	6188	11.25	0
0	6201	11.3	1
0	6202	11.3	2
0	6203	11.3	1
0	6204	11.3	0
0	6206	11.3	1
0	6207	11.3	2
0	6208	11.3	1
0	6209	11.3	0
0	6228	11.35	1
0	6229	11.35	2
0	6230	11.35	1
0	6231	11.35	0
0	6244	11.4	1
0	6245	11.4	2
0	6246	11.4	1
0	6247	11.4	0
0	6249	11.4	1
0	6250	11.4	2
0	6251	11.4	1
0	6252	11.4	0
0	6271	11.45	1
0	6272	11.45	2
0	6273	11.45	1
0	6274	11.45	0
0	6287	11.5	1
0	6288	11.5	2
0	6289	11.5	1
0	6290	11.5	0
0	6292	11.5	1
0	6293	11.5	2
0	6294	11.5	1
0	6295	11.5	0
0	6328	11.55	1
0	6329	11.55	2
0	6330	11.55	1
0	6331	11.55	0
0	6344	11.6	1
0	6345	11.6	2
0	6346	11.6	1
0	6347	11.6	0
0	6349	11.6	1
0	6350	11.6	2
0	6351	11.6	1
0	6352	11.6	0
0	6371	11.65	1
0	6372	11.65	2
0	6373	11.65	1
0	6374	11.65	0
0	6401	11.7	1
0	6402	11.7	2
0	6403	11.7	1
0	6404	11.7	0
0	6406	11.7	1
0	6407	11.7	2
0	6408	11.7	1
0	6409	11.7	0
0	6428	11.75	1
0	6429	11.75	2
0	6430	11.75	1
0	6431	11.75	0
0	6444	11.8	1
0	6445	11.8	2
0	6446	11.8	1
0	6447	11.8	0
0	6449	11.8	1
0	6450	11.8	2
0	6451	11.8	1
0	6452	11.8	0
0	6471	11.85	1
0	6472	11.85	2
0	6473	11.85	1
0	6474	11.85	0
0	6487	11.9	1
0	6488	11.9	2
0	6489	11.9	1
0	6490	11.9	0
0	6492	11.9	1
0	6493	11.9	2
0	6494	11.9	1
0	6495	11.9	0
0	6514	11.95	1
0	6515	11.95	2
0	6516	11.95	1
0	6517	11.95	0
0	6533	12	1
0	6534	12	2
0	6535	12	1
0	6536	12	0
0	6538	12	1
0	6539	12	2
0	6540	12	1
0	6541	12	0
0	6560	12.05	1
0	6561	12.05	2
0	6562	12.05	1
0	6563	12.05	0
0	6594	12.1	1
0	6595	12.1	2
0	6596	12.1	1
0	6597	12.1	0
0	6599	12.1	1
0	6600	12.1	2
0	6601	12.1	1
0	6602	12.1	0
0	6625	12.15	1
0	6626	12.15	2
0	6627	12.15	1
0	6628	12.15	0
0	6641	12.2	1
0	6642	12.2	2
0	6643	12.2	1
0	6644	12.2	0
0	6646	12.2	1
0	6647	12.2	2
0	6648	12.2	1
0	6649	12.2	0
0	6694	12.25	1
0	6695	12.25	2
0	6696	12.25	1
0	6697	12.25	0
0	6710	12.3	1
0	6711	12.3	2
0	6712	12.3	1
0	6713	12.3	0
0	6715	12.3	1
0	6716	12.3	2
0	6717	12.3	1
0	6718	12.3	0
0	6737	12.35	1
0	6738	12.35	2
0	6739	12.35	1
0	6740	12.35	0
0	6753	12.4	1
0	6754	12.4	2
0	6755	12.4	1
0	6756	12.4	0
0	6758	12.4	1
0	6759	12.4	2
0	6760	12.4	1
0	6761	12.4	0
0	6780	12.45	1
0	6781	12.45	2
0	6782	12.45	1
0	6783	12.45	0
0	6796	12.5	1
0	6797	12.5	2
0	6798	12.5	1
0	6799	12.5	0
0	6801	12.5	1
0	6802	12.5	2
0	6803	12.5	1
0	6804	12.5	0
0	6823	12.55	1
0	6824	12.55	2
0	6825	12.55	1
0	6826	12.55	0
0	6839	12.6	1
0	6840	12.6	2
0	6841	12.6	1
0	6842	12.6	0
0	6844	12.6	1
0	6845	12.6	2
0	6846	12.6	1
0	6847	12.6	0
0	6918	12.65	1
0	6919	12.65	2
0	6920	12.65	1
0	6921	12.65	0
0	6934	12.7	1
0	6935	12.7	2
0	6936	12.7	1
0	6937	12.7	0
0	6939	12.7	1
0	6940	12.7	2
0	6941	12.7	1
0	6942	12.7	0
0	6961	12.75	1
0	6962	12.75	2
0	6963	12.75	1
0	6964	12.75	0
0	7005	12.8	1
0	7006	12.8	2
0	7007	12.8	1
0	7008	12.8	0
0	7010	12.8	1
0	7011	12.8	2
0	7012	12.8	1
0	7013	12.8	0
0	7032	12.85	1
0	7033	12.85	2
0	7034	12.85	1
0	7035	12.85	0
0	7048	12.9	1
0	7049	12.9	2
0	7050	12.9	1
0	7051	12.9	0
0	7053	12.9	1
0	7054	12.9	2
0	7055	12.9	1
0	7056	12.9	0
0	7075	12.95	1
0	7076	12.95	2
0	7077	12.95	1
0	7078	12.95	0
0	7091	13	1
0	7092	13	2
0	7093	13	1
0	7094	13	0
0	7096	13	1
0	7097	13	2
0	7098	13	1
0	7099	13	0
0	7118	13.05	1
0	7119	13.05	2
0	7120	13.05	1
0	7121	13.05	0
0	7138	13.1	1
0	7139	13.1	2
0	7140	13.1	1
0	7141	13.1	0
0	7143	13.1	1
0	7144	13.1	2
0	7145	13.1	1
0	7146	13.1	0
0	7169	13.15	1
0	7170	13.15	2
0	7171	13.15	1
0	7172	13.15	0
0	7209	13.2	1
0	7210	13.2	2
0	7211	13.2	1
0	7212	13.2	0
0	7214	13.2	1
0	7215	13.2	2
0	7216	13.2	1
0	7217	13.2	0
0	7236	13.25	1
0	7237	13.25	2
0	7238	13.25	1
0	7239	13.25	0
0	7252	13.3	1
0	7253	13.3	2
0	7254	13.3	1
0	7255	13.3	0
0	7257	13.3	1
0	7258	13.3	2
0	7259	13.3	1
0	7260	13.3	0
0	7316	13.35	1
0	7317	13.35	2
0	7318	13.35	1
0	7319	13.35	0
0	7332	13.4	1
0	7333	13.4	2
0	7334	13.4	1
0	7335	13.4	0
0	7337	13.4	1
0	7338	13.4	2
0	7339	13.4	1
0	7340	13.4	0
0	7359	13.45	1
0	7360	13.45	2
0	7361	13.45	1
0	7362	13.45	0
0	7375	13.5	1
0	7376	13.5	2
0	7377	13.5	1
0	7378	13.5	0
0	7380	13.5	1
0	7381	13.5	2
0	7382	13.5	1
0	7383	13.5	0
0	7402	13.55	1
0	7403	13.55	2
0	7404	13.55	1
0	7405	13.55	0
0	7418	13.6	1
0	7419	13.6	2
0	7420	13.6	1
0	7421	13.6	0
0	7423	13.6	1
0	7424	13.6	2
0	7425	13.6	1
0	7426	13.6	0
0	7445	13.65	1
0	7446	13.65	2
0	7447	13.65	1
0	7448	13.65	0
0	7461	13.7	1
0	7462	13.7	2
0	7463	13.7	1
0	7464	13.7	0
0	7466	13.7	1
0	7467	13.7	2
0	7468	13.7	1
0	7469	13.7	0
0	7528	13.75	1
0	7529	13.75	2
0	7530	13.75	1
0	7531	13.75	0
0	7544	13.8	1
0	7545	13.8	2
0	7546	13.8	1
0	7547	13.8	0
0	7549	13.8	1
0	7550	13.8	2
0	7551	13.8	1
0	7552	13.8	0
0	7571	13.85	1
0	7572	13.85	2
0	7573	13.85	1
0	7574	13.85	0
0	7627	13.9	1
0	7628	13.9	2
0	7629	13.9	1
0	7630	13.9	0
0	7632	13.9	1
0	7633	13.9	2
0	7634	13.9	1
0	7635	13.9	0
0	7654	13.95	1
0	7655	13.95	2
0	7656	13.95	1
0	7657	13.95	0
0	7670	14	1
0	7671	14	2
0	7672	14	1
0	7673	14	0
0	7675	14	1
0	7676	14	2
0	7677	14	1
0	7678	14	0
0	7697	14.05	1
0	7698	14.05	2
0	7699	14.05	1
0	7700	14.05	0
0	7717	14.1	1
0	7718	14.1	2
0	7719	14.1	1
0	7720	14.1	0
0	7722	14.1	1
0	7723	14.1	2
0	7724	14.1	1
0	7725	14.1	0
0	7748	14.15	1
0	7749	14.15	2
0	7750	14.15	1
0	7751	14.15	0
0	7764	14.2	1
0	7765	14.2	2
0	7766	14.2	1
0	7767	14.2	0
0	7769	14.2	1
0	7770	14.2	2
0	7771	14.2	1
0	7772	14.2	0
0	7791	14.25	1
0	7792	14.25	2
0	7793	14.25	1
0	7794	14.25	0
0	7836	14.3	1
0	7837	14.3	2
0	7838	14.3	1
0	7839	14.3	0
0	7841	14.3	1
0	7842	14.3	2
0	7843	14.3	1
0	7844	14.3	0
0	7863	14.35	1
0	7864	14.35	2
0	7865	14.35	1
0	7866	14.35	0
0	7879	14.4	1
0	7880	14.4	2
0	7881	14.4	1
0	7882	14.4	0
0	7884	14.4	1
0	7885	14.4	2
0	7886	14.4	1
0	7887	14.4	0
0	7920	14.45	1
0	7921	14.45	2
0	7922	14.45	1
0	7923	14.45	0
0	7936	14.5	1
0	7937	14.5	2
0	7938	14.5	1
0	7939	14.5	0
0	7941	14.5	1
0	7942	14.5	2
0	7943	14.5	1
0	7944	14.5	0
0	7963	14.55	1
0	7964	14.55	2
0	7965	14.55	1
0	7966	14.55	0
0	7979	14.6	1
0	7980	14.6	2
0	7981	14.6	1
0	7982	14.6	0
0	7984	14.6	1
0	7985	14.6	2
0	7986	14.6	1
0	7987	14.6	0
0	8006	14.65	1
0	8007	14.65	2
0	8008	14.65	1
0	8009	14.65	0
0	8022	14.7	1
0	8023	14.7	2
0	8024	14.7	1
0	8025	14.7	0
0	8027	14.7	1
0	8028	14.7	2
0	8029	14.7	1
0	8030	14.7	0
0	8049	14.75	1
0	8050	14.75	2
0	8051	14.75	1
0	8052	14.75	0
0	8065	14.8	1
0	8066	14.8	2
0	8067	14.8	1
0	8068	14.8	0
0	8070	14.8	1
0	8071	14.8	2
0	8072	14.8	1
0	8073	14.8	0
0	8102	14.85	1
0	8103	14.85	2
0	8104	14.85	1
0	8105	14.85	0
0	8118	14.9	1
0	8119	14.9	2
0	8120	14.9	1
0	8121	14.9	0
0	8123	14.9	1
0	8124	14.9	2
0	8125	14.9	1
0	8126	14.9	0
0	8145	14.95	1
0	8146	14.95	2
0	8147	14.95	1
0	8148	14.95	0
0	8176	15	1
0	8177	15	2
0	8178	15	1
0	8179	15	0
0	8181	15	1
0	8182	15	2
0	8183	15	1
0	8184	15	0
0	8203	15.05	1
0	8204	15.05	2
0	8205	15.05	1
0	8206	15.05	0
0	8223	15.1	1
0	8224	15.1	2
0	8225	15.1	1
0	8226	15.1	0
0	8228	15.1	1
0	8229	15.1	2
0	8230	15.1	1
0	8231	15.1	0
0	8254	15.15	1
0	8255	15.15	2
0	8256	15.15	1
0	8257	15.15	0
0	8270	15.2	1
0	8271	15.2	2
0	8272	15.2	1
0	8273	15.2	0
0	8275	15.2	1
0	8276	15.2	2
0	8277	15.2	1
0	8278	15.2	0
0	8297	15.25	1
0	8298	15.25	2
0	8299	15.25	1
0	8300	15.25	0
0	8313	15.3	1
0	8314	15.3	2
0	8315	15.3	1
0	8316	15.3	0
0	8318	15.3	1
0	8319	15.3	2
0	8320	15.3	1
0	8321	15.3	0
0	8340	15.35	1
0	8341	15.35	2
0	8342	15.35	1
0	8343	15.35	0
0	8382	15.4	1
0	8383	15.4	2
0	8384	15.4	1
0	8385	15.4	0
0	8387	15.4	1
0	8388	15.4	2
0	8389	15.4	1
0	8390	15.4	0
0	8409	15.45	1
0	8410	15.45	2
0	8411	15.45	1
0	8412	15.45	0
0	8463	15.5	1
0	8464	15.5	2
0	8465	15.5	1
0	8466	15.5	0
0	8468	15.5	1
0	8469	15.5	2
0	8470	15.5	1
0	8471	15.5	0
0	8504	15.55	1
0	8505	15.55	2
0	8506	15.55	1
0	8507	15.55	0
0	8520	15.6	1
0	8521	15.6	2
0	8522	15.6	1
0	8523	15.6	0
0	8525	15.6	1
0	8526	15.6	2
0	8527	15.6	1
0	8528	15.6	0
0	8561	15.65	1
0	8562	15.65	2
0	8563	15.65	1
0	8564	15.65	0
0	8577	15.7	1
0	8578	15.7	2
0	8579	15.7	1
0	8580	15.7	0
0	8582	15.7	1
0	8583	15.7	2
0	8584	15.7	1
0	8585	15.7	0
0	8604	15.75	1
0	8605	15.75	2
0	8606	15.75	1
0	8607	15.75	0
0	8620	15.8	1
0	8621	15.8	2
0	8622	15.8	1
0	8623	15.8	0
0	8625	15.8	1
0	8626	15.8	2
0	8627	15.8	1
0	8628	15.8	0
0	8647	15.85	1
0	8648	15.85	2
0	8649	15.85	1
0	8650	15.85	0
0	8663	15.9	1
0	8664	15.9	2
0	8665	15.9	1
0	8666	15.9	0
0	8668	15.9	1
0	8669	15.9	2
0	8670	15.9	1
0	8671	15.9	0
0	8704	15.95	1
0	8705	15.95	2
0	8706	15.95	1
0	8707	15.95	0
0	8720	16	1
0	8721	16	2
0	8722	16	1
0	8723	16	0
0	8725	16	1
0	8726	16	2
0	8727	16	1
0	8728	16	0
0	8761	16.05	1
0	8762	16.05	2
0	8763	16.05	1
0	8764	16.05	0
0	8795	16.1	1
0	8796	16.1	2
0	8797	16.1	1
0	8798	16.1	0
0	8800	16.1	1
0	8801	16.1	2
0	8802	16.1	1
0	8803	16.1	0
0	8826	16.15	1
0	8827	16.15	2
0	8828	16.15	1
0	8829	16.15	0
0	8856	16.2	1
0	8857	16.2	2
0	8858	16.2	1
0	8859	16.2	0
0	8861	16.2	1
0	8862	16.2	2
0	8863	16.2	1
0	8864	16.2	0
0	8883	16.25	1
0	8884	16.25	2
0	8885	16.25	1
0	8886	16.25	0
0	8899	16.3	1
0	8900	16.3	2
0	8901	16.3	1
0	8902	16.3	0
0	8904	16.3	1
0	8905	16.3	2
0	8906	16.3	1
0	8907	16.3	0
0	8926	16.35	1
0	8927	16.35	2
0	8928	16.35	1
0	8929	16.35	0
0	8942	16.4	1
0	8943	16.4	2
0	8944	16.4	1
0	8945	16.4	0
0	8947	16.4	1
0	8948	16.4	2
0	8949	16.4	1
0	8950	16.4	0
0	8969	16.45	1
0	8970	16.45	2
0	8971	16.45	1
0	8972	16.45	0
0	9011	16.5	1
0	9012	16.5	2
0	9013	16.5	1
0	9014	16.5	0
0	9016	16.5	1
0	9017	16.5	2
0	9018	16.5	1
0	9019	16.5	0
0	9038	16.55	1
0	9039	16.55	2
0	9040	16.55	1
0	9041	16.55	0
0	9071	16.6	1
0	9072	16.6	2
0	9073	16.6	1
0	9074	16.6	0
0	9076	16.6	1
0	9077	16.6	2
0	9078	16.6	1
0	9079	16.6	0
0	9112	16.65	1
0	9113	16.65	2
0	9114	16.65	1
0	9115	16.65	0
0	9128	16.7	1
0	9129	16.7	2
0	9130	16.7	1
0	9131	16.7	0
0	9133	16.7	1
0	9134	16.7	2
0	9135	16.7	1
0	9136	16.7	0
0	9169	16.75	1
0	9170	16.75	2
0	9171	16.75	1
0	9172	16.75	0
0	9185	16.8	1
0	9186	16.8	2
0	9187	16.8	1
0	9188	16.8	0
0	9190	16.8	1
0	9191	16.8	2
0	9192	16.8	1
0	9193	16.8	0
0	9212	16.85	1
0	9213	16.85	2
0	9214	16.85	1
0	9215	16.85	0
0	9228	16.9	1
0	9229	16.9	2
0	9230	16.9	1
0	9231	16.9	0
0	9233	16.9	1
0	9234	16.9	2
0	9235	16.9	1
0	9236	16.9	0
0	9255	16.95	1
0	9256	16.95	2
0	9257	16.95	1
0	9258	16.95	0
0	9274	17	1
0	9275	17	2
0	9276	17	1
0	9277	17	0
0	9279	17	1
0	9280	17	2
0	9281	17	1
0	9282	17	0
0	9315	17.05	1
0	9316	17.05	2
0	9317	17.05	1
0	9318	17.05	0
0	9335	17.1	1
0	9336	17.1	2
0	9337	17.1	1
0	9338	17.1	0
0	9340	17.1	1
0	9341	17.1	2
0	9342	17.1	1
0	9343	17.1	0
0	9404	17.15	1
0	9405	17.15	2
0	9406	17.15	1
0	9407	17.15	0
0	9423	17.2	1
0	9424	17.2	2
0	9425	17.2	1
0	9426	17.2	0
0	9428	17.2	1
0	9429	17.2	2
0	9430	17.2	1
0	9431	17.2	0
0	9450	17.25	1
0	9451	17.25	2
0	9452	17.25	1
0	9453	17.25	0
0	9476	17.3	1
0	9477	17.3	2
0	9478	17.3	1
0	9479	17.3	0
0	9481	17.3	1
0	9482	17.3	2
0	9483	17.3	1
0	9484	17.3	0
0	9503	17.35	1
0	9504	17.35	2
0	9505	17.35	1
0	9506	17.35	0
0	9519	17.4	1
0	9520	17.4	2
0	9521	17.4	1
0	9522	17.4	0
0	9524	17.4	1
0	9525	17.4	2
0	9526	17.4	1
0	9527	17.4	0
0	9546	17.45	1
0	9547	17.45	2
0	9548	17.45	1
0	9549	17.45	0
0	9562	17.5	1
0	9563	17.5	2
0	9564	17.5	1
0	9565	17.5	0
0	9567	17.5	1
0	9568	17.5	2
0	9569	17.5	1
0	9570	17.5	0
0	9589	17.55	1
0	9590	17.55	2
0	9591	17.55	1
0	9592	17.55	0
0	9605	17.6	1
0	9606	17.6	2
0	9607	17.6	1
0	9608	17.6	0
0	9610	17.6	1
0	9611	17.6	2
0	9612	17.6	1
0	9613	17.6	0
0	9632	17.65	1
0	9633	17.65	2
0	9634	17.65	1
0	9635	17.65	0
0	9651	17.7	1
0	9652	17.7	2
0	9653	17.7	1
0	9654	17.7	0
0	9656	17.7	1
0	9657	17.7	2
0	9658	17.7	1
0	9659	17.7	0
0	9678	17.75	1
0	9679	17.75	2
0	9680	17.75	1
0	9681	17.75	0
0	9694	17.8	1
0	9695	17.8	2
0	9696	17.8	1
0	9697	17.8	0
0	9699	17.8	1
0	9700	17.8	2
0	9701	17.8	1
0	9702	17.8	0
0	9721	17.85	1
0	9722	17.85	2
0	9723	17.85	1
0	9724	17.85	0
0	9737	17.9	1
0	9738	17.9	2
0	9739	17.9	1
0	9740	17.9	0
0	9742	17.9	1
0	9743	17.9	2
0	9744	17.9	1
0	9745	17.9	0
0	9764	17.95	1
0	9765	17.95	2
0	9766	17.95	1
0	9767	17.95	0
0	9780	18	1
0	9781	18	2
0	9782	18	1
0	9783	18	0
0	9785	18	1
0	9786	18	2
0	9787	18	1
0	9788	18	0
0	9807	18.05	1
0	9808	18.05	2
0	9809	18.05	1
0	9810	18.05	0
0	9827	18.1	1
0	9828	18.1	2
0	9829	18.1	1
0	9830	18.1	0
0	9832	18.1	1
0	9833	18.1	2
0	9834	18.1	1
0	9835	18.1	0
0	9858	18.15	1
0	9859	18.15	2
0	9860	18.15	1
0	9861	18.15	0
0	9874	18.2	1
0	9875	18.2	2
0	9876	18.2	1
0	9877	18.2	0
0	9879	18.2	1
0	9880	18.2	2
0	9881	18.2	1
0	9882	18.2	0
0	9901	18.25	1
0	9902	18.25	2
0	9903	18.25	1
0	9904	18.25	0
0	9917	18.3	1
0	9918	18.3	2
0	9919	18.3	1
0	9920	18.3	0
0	9922	18.3	1
0	9923	18.3	2
0	9924	18.3	1
0	9925	18.3	0
0	9944	18.35	1
0	9945	18.35	2
0	9946	18.35	1
0	9947	18.35	0
0	9960	18.4	1
0	9961	18.4	2
0	9962	18.4	1
0	9963	18.4	0
0	9965	18.4	1
0	9966	18.4	2
0	9967	18.4	1
0	9968	18.4	0
0	9987	18.45	1
0	9988	18.45	2
0	9989	18.45	1
0	9990	18.45	0
0	10003	18.5	1
0	10004	18.5	2
0	10005	18.5	1
0	10006	18.5	0
0	10008	18.5	1
0	10009	18.5	2
0	10010	18.5	1
0	10011	18.5	0
0	10030	18.55	1
0	10031	18.55	2
0	10032	18.55	1
0	10033	18.55	0
0	10046	18.6	1
0	10047	18.6	2
0	10048	18.6	1
0	10049	18.6	0
0	10051	18.6	1
0	10052	18.6	2
0	10053	18.6	1
0	10054	18.6	0
0	10108	18.65	1
0	10109	18.65	2
0	10110	18.65	1
0	10111	18.65	0
0	10124	18.7	1
0	10125	18.7	2
0	10126	18.7	1
0	10127	18.7	0
0	10129	18.7	1
0	10130	18.7	2
0	10131	18.7	1
0	10132	18.7	0
0	10151	18.75	1
0	10152	18.75	2
0	10153	18.75	1
0	10154	18.75	0
0	10181	18.8	1
0	10182	18.8	2
0	10183	18.8	1
0	10184	18.8	0
0	10186	18.8	1
0	10187	18.8	2
0	10188	18.8	1
0	10189	18.8	0
0	10208	18.85	1
0	10209	18.85	2
0	10210	18.85	1
0	10211	18.85	0
0	10238	18.9	1
0	10239	18.9	2
0	10240	18.9	1
0	10241	18.9	0
0	10243	18.9	1
0	10244	18.9	2
0	10245	18.9	1
0	10246	18.9	0
0	10265	18.95	1
0	10266	18.95	2
0	10267	18.95	1
0	10268	18.95	0
0	10281	19	1
0	10282	19	2
0	10283	19	1
0	10284	19	0
0	10286	19	1
0	10287	19	2
0	10288	19	1
0	10289	19	0
0	10334	19.05	1
0	10335	19.05	2
0	10336	19.05	1
0	10337	19.05	0
0	10354	19.1	1
0	10355	19.1	2
0	10356	19.1	1
0	10357	19.1	0
0	10359	19.1	1
0	10360	19.1	2
0	10361	19.1	1
0	10362	19.1	0
0	10385	19.15	1
0	10386	19.15	2
0	10387	19.15	1
0	10388	19.15	0
0	10439	19.2	1
0	10440	19.2	2
0	10441	19.2	1
0	10442	19.2	0
0	10444	19.2	1
0	10445	19.2	2
0	10446	19.2	1
0	10447	19.2	0
0	10466	19.25	1
0	10467	19.25	2
0	10468	19.25	1
0	10469	19.25	0
0	10482	19.3	1
0	10483	19.3	2
0	10484	19.3	1
0	10485	19.3	0
0	10487	19.3	1
0	10488	19.3	2
0	10489	19.3	1
0	10490	19.3	0
0	10523	19.35	1
0	10524	19.35	2
0	10525	19.35	1
0	10526	19.35	0
0	10539	19.4	1
0	10540	19.4	2
0	10541	19.4	1
0	10542	19.4	0
0	10544	19.4	1
0	10545	19.4	2
0	10546	19.4	1
0	10547	19.4	0
0	10580	19.45	1
0	10581	19.45	2
0	10582	19.45	1
0	10583	19.45	0
0	10596	19.5	1
0	10597	19.5	2
0	10598	19.5	1
0	10599	19.5	0
0	10601	19.5	1
0	10602	19.5	2
0	10603	19.5	1
0	10604	19.5	0
0	10623	19.55	1
0	10624	19.55	2
0	10625	19.55	1
0	10626	19.55	0
0	10665	19.6	1
0	10666	19.6	2
0	10667	19.6	1
0	10668	19.6	0
0	10670	19.6	1
0	10671	19.6	2
0	10672	19.6	1
0	10673	19.6	0
0	10692	19.65	1
0	10693	19.65	2
0	10694	19.65	1
0	10695	19.65	0
0	10708	19.7	1
0	10709	19.7	2
0	10710	19.7	1
0	10711	19.7	0
0	10713	19.7	1
0	10714	19.7	2
0	10715	19.7	1
0	10716	19.7	0
0	10749	19.75	1
0	10750	19.75	2
0	10751	19.75	1
0	10752	19.75	0
0	10765	19.8	1
0	10766	19.8	2
0	10767	19.8	1
0	10768	19.8	0
0	10770	19.8	1
0	10771	19.8	2
0	10772	19.8	1
0	10773	19.8	0
0	10792	19.85	1
0	10793	19.85	2
0	10794	19.85	1
0	10795	19.85	0
0	10822	19.9	1
0	10823	19.9	2
0	10824	19.9	1
0	10825	19.9	0
0	10827	19.9	1
0	10828	19.9	2
0	10829	19.9	1
0	10830	19.9	0
0	10849	19.95	1
0	10850	19.95	2
0	10851	19.95	1
0	10852	19.95	0
0	10880	20	1
0	10881	20	2
0	10882	20	1
0	10883	20	0
0	10885	20	1
0	10886	20	2
0	10887	20	1
0	10888	20	0
0	10907	20.05	1
0	10908	20.05	2
0	10909	20.05	1
0	10910	20.05	0
0	10927	20.1	1
0	10928	20.1	2
0	10929	20.1	1
0	10930	20.1	0
0	10932	20.1	1
0	10933	20.1	2
0	10934	20.1	1
0	10935	20.1	0
0	10981	20.15	1
0	10982	20.15	2
0	10983	20.15	1
0	10984	20.15	0
0	10997	20.2	1
0	10998	20.2	2
0	10999	20.2	1
0	11000	20.2	0
0	11002	20.2	1
0	11003	20.2	2
0	11004	20.2	1
0	11005	20.2	0
0	11024	20.25	1
0	11025	20.25	2
0	11026	20.25	1
0	11027	20.25	0
0	11066	20.3	1
0	11067	20.3	2
0	11068	20.3	1
0	11069	20.3	0
0	11071	20.3	1
0	11072	20.3	2
0	11073	20.3	1
0	11074	20.3	0
0	11093	20.35	1
0	11094	20.35	2
0	11095	20.35	1
0	11096	20.35	0
0	11109	20.4	1
0	11110	20.4	2
0	11111	20.4	1
0	11112	20.4	0
0	11114	20.4	1
0	11115	20.4	2
0	11116	20.4	1
0	11117	20.4	0
0	11150	20.45	1
0	11151	20.45	2
0	11152	20.45	1
0	11153	20.45	0
0	11166	20.5	1
0	11167	20.5	2
0	11168	20.5	1
0	11169	20.5	0
0	11171	20.5	1
0	11172	20.5	2
0	11173	20.5	1
0	11174	20.5	0
0	11207	20.55	1
0	11208	20.55	2
0	11209	20.55	1
0	11210	20.55	0
0	11223	20.6	1
0	11224	20.6	2
0	11225	20.6	1
0	11226	20.6	0
0	11228	20.6	1
0	11229	20.6	2
0	11230	20.6	1
0	11231	20.6	0
0	11250	20.65	1
0	11251	20.65	2
0	11252	20.65	1
0	11253	20.65	0
0	11292	20.7	1
0	11293	20.7	2
0	11294	20.7	1
0	11295	20.7	0
0	11297	20.7	1
0	11298	20.7	2
0	11299	20.7	1
0	11300	20.7	0
0	11319	20.75	1
0	11320	20.75	2
0	11321	20.75	1
0	11322	20.75	0
0	11335	20.8	1
0	11336	20.8	2
0	11337	20.8	1
0	11338	20.8	0
0	11340	20.8	1
0	11341	20.8	2
0	11342	20.8	1
0	11343	20.8	0
0	11376	20.85	1
0	11377	20.85	2
0	11378	20.85	1
0	11379	20.85	0
0	11392	20.9	1
0	11393	20.9	2
0	11394	20.9	1
0	11395	20.9	0
0	11397	20.9	1
0	11398	20.9	2
0	11399	20.9	1
0	11400	20.9	0
0	11419	20.95	1
0	11420	20.95	2
0	11421	20.95	1
0	11422	20.95	0
0	11449	21	1
0	11450	21	2
0	11451	21	1
0	11452	21	0
0	11454	21	1
0	11455	21	2
0	11456	21	1
0	11457	21	0
0	11476	21.05	1
0	11477	21.05	2
0	11478	21.05	1
0	11479	21.05	0
0	11499	21.1	1
0	11500	21.1	2
0	11501	21.1	1
0	11502	21.1	0
0	11504	21.1	1
0	11505	21.1	2
0	11506	21.1	1
0	11507	21.1	0
0	11530	21.15	1
0	11531	21.15	2
0	11532	21.15	1
0	11533	21.15	0
0	11546	21.2	1
0	11547	21.2	2
0	11548	21.2	1
0	11549	21.2	0
0	11551	21.2	1
0	11552	21.2	2
0	11553	21.2	1
0	11554	21.2	0
0	11573	21.25	1
0	11574	21.25	2
0	11575	21.25	1
0	11576	21.25	0
0	11589	21.3	1
0	11590	21.3	2
0	11591	21.3	1
0	11592	21.3	0
0	11594	21.3	1
0	11595	21.3	2
0	11596	21.3	1
0	11597	21.3	0
0	11616	21.35	1
0	11617	21.35	2
0	11618	21.35	1
0	11619	21.35	0
0	11658	21.4	1
0	11659	21.4	2
0	11660	21.4	1
0	11661	21.4	0
0	11663	21.4	1
0	11664	21.4	2
0	11665	21.4	1
0	11666	21.4	0
0	11685	21.45	1
0	11686	21.45	2
0	11687	21.45	1
0	11688	21.45	0
0	11701	21.5	1
0	11702	21.5	2
0	11703	21.5	1
0	11704	21.5	0
0	11706	21.5	1
0	11707	21.5	2
0	11708	21.5	1
0	11709	21.5	0
0	11742	21.55	1
0	11743	21.55	2
0	11744	21.55	1
0	11745	21.55	0
0	11758	21.6	1
0	11759	21.6	2
0	11760	21.6	1
0	11761	21.6	0
0	11763	21.6	1
0	11764	21.6	2
0	11765	21.6	1
0	11766	21.6	0
0	11785	21.65	1
0	11786	21.65	2
0	11787	21.65	1
0	11788	21.65	0
0	11801	21.7	1
0	11802	21.7	2
0	11803	21.7	1
0	11804	21.7	0
0	11806	21.7	1
0	11807	21.7	2
0	11808	21.7	1
0	11809	21.7	0
0	11828	21.75	1
0	11829	21.75	2
0	11830	21.75	1
0	11831	21.75	0
0	11844	21.8	1
0	11845	21.8	2
0	11846	21.8	1
0	11847	21.8	0
0	11849	21.8	1
0	11850	21.8	2
0	11851	21.8	1
0	11852	21.8	0
0	11871	21.85	1
0	11872	21.85	2
0	11873	21.85	1
0	11874	21.85	0
0	11887	21.9	1
0	11888	21.9	2
0	11889	21.9	1
0	11890	21.9	0
0	11892	21.9	1
0	11893	21.9	2
0	11894	21.9	1
0	11895	21.9	0
0	11928	21.95	1
0	11929	21.95	2
0	11930	21.95	1
0	11931	21.95	0
0	11947	22	1
0	11948	22	2
0	11949	22	1
0	11950	22	0
0	11952	22	1
0	11953	22	2
0	11954	22	1
0	11955	22	0
0	11974	22.05	1
0	11975	22.05	2
0	11976	22.05	1
0	11977	22.05	0
0	12008	22.1	1
0	12009	22.1	2
0	12010	22.1	1
0	12011	22.1	0
0	12013	22.1	1
0	12014	22.1	2
0	12015	22.1	1
0	12016	22.1	0
0	12039	22.15	1
0	12040	22.15	2
0	12041	22.15	1
0	12042	22.15	0
0	12055	22.2	1
0	12056	22.2	2
0	12057	22.2	1
0	12058	22.2	0
0	12060	22.2	1
0	12061	22.2	2
0	12062	22.2	1
0	12063	22.2	0
0	12082	22.25	1
0	12083	22.25	2
0	12084	22.25	1
0	12085	22.25	0
0	12101	22.3	1
0	12102	22.3	2
0	12103	22.3	1
0	12104	22.3	0
0	12106	22.3	1
0	12107	22.3	2
0	12108	22.3	1
0	12109	22.3	0
0	12128	22.35	1
0	12129	22.35	2
0	12130	22.35	1
0	12131	22.35	0
0	12144	22.4	1
0	12145	22.4	2
0	12146	22.4	1
0	12147	22.4	0
0	12149	22.4	1
0	12150	22.4	2
0	12151	22.4	1
0	12152	22.4	0
0	12171	22.45	1
0	12172	22.45	2
0	12173	22.45	1
0	12174	22.45	0
0	12204	22.5	1
0	12205	22.5	2
0	12206	22.5	1
0	12207	22.5	0
0	12209	22.5	1
0	12210	22.5	2
0	12211	22.5	1
0	12212	22.5	0
0	12231	22.55	1
0	12232	22.55	2
0	12233	22.55	1
0	12234	22.55	0
0	12247	22.6	1
0	12248	22.6	2
0	12249	22.6	1
0	12250	22.6	0
0	12252	22.6	1
0	12253	22.6	2
0	12254	22.6	1
0	12255	22.6	0
0	12284	22.65	1
0	12285	22.65	2
0	12286	22.65	1
0	12287	22.65	0
0	12314	22.7	1
0	12315	22.7	2
0	12316	22.7	1
0	12317	22.7	0
0	12319	22.7	1
0	12320	22.7	2
0	12321	22.7	1
0	12322	22.7	0
0	12341	22.75	1
0	12342	22.75	2
0	12343	22.75	1
0	12344	22.75	0
0	12357	22.8	1
0	12358	22.8	2
0	12359	22.8	1
0	12360	22.8	0
0	12362	22.8	1
0	12363	22.8	2
0	12364	22.8	1
0	12365	22.8	0
0	12422	22.85	1
0	12423	22.85	2
0	12424	22.85	1
0	12425	22.85	0
0	12438	22.9	1
0	12439	22.9	2
0	12440	22.9	1
0	12441	22.9	0
0	12443	22.9	1
0	12444	22.9	2
0	12445	22.9	1
0	12446	22.9	0
0	12465	22.95	1
0	12466	22.95	2
0	12467	22.95	1
0	12468	22.95	0
0	12481	23	1
0	12482	23	2
0	12483	23	1
0	12484	23	0
0	12486	23	1
0	12487	23	2
0	12488	23	1
0	12489	23	0
0	12534	23.05	1
0	12535	23.05	2
0	12536	23.05	1
0	12537	23.05	0
0	12554	23.1	1
0	12555	23.1	2
0	12556	23.1	1
0	12557	23.1	0
0	12559	23.1	1
0	12560	23.1	2
0	12561	23.1	1
0	12562	23.1	0
0	12585	23.15	1
0	12586	23.15	2
0	12587	23.15	1
0	12588	23.15	0
0	12615	23.2	1
0	12616	23.2	2
0	12617	23.2	1
0	12618	23.2	0
0	12620	23.2	1
0	12621	23.2	2
0	12622	23.2	1
0	12623	23.2	0
0	12656	23.25	1
0	12657	23.25	2
0	12658	23.25	1
0	12659	23.25	0
0	12672	23.3	1
0	12673	23.3	2
0	12674	23.3	1
0	12675	23.3	0
0	12677	23.3	1
0	12678	23.3	2
0	12679	23.3	1
0	12680	23.3	0
0	12699	23.35	1
0	12700	23.35	2
0	12701	23.35	1
0	12702	23.35	0
0	12741	23.4	1
0	12742	23.4	2
0	12743	23.4	1
0	12744	23.4	0
0	12746	23.4	1
0	12747	23.4	2
0	12748	23.4	1
0	12749	23.4	0
0	12768	23.45	1
0	12769	23.45	2
0	12770	23.45	1
0	12771	23.45	0
0	12784	23.5	1
0	12785	23.5	2
0	12786	23.5	1
0	12787	23.5	0
0	12789	23.5	1
0	12790	23.5	2
0	12791	23.5	1
0	12792	23.5	0
0	12811	23.55	1
0	12812	23.55	2
0	12813	23.55	1
0	12814	23.55	0
0	12853	23.6	1
0	12854	23.6	2
0	12855	23.6	1
0	12856	23.6	0
0	12858	23.6	1
0	12859	23.6	2
0	12860	23.6	1
0	12861	23.6	0
0	12880	23.65	1
0	12881	23.65	2
0	12882	23.65	1
0	12883	23.65	0
0	12896	23.7	1
0	12897	23.7	2
0	12898	23.7	1
0	12899	23.7	0
0	12901	23.7	1
0	12902	23.7	2
0	12903	23.7	1
0	12904	23.7	0
0	12937	23.75	1
0	12938	23.75	2
0	12939	23.75	1
0	12940	23.75	0
0	12967	23.8	1
0	12968	23.8	2
0	12969	23.8	1
0	12970	23.8	0
0	12972	23.8	1
0	12973	23.8	2
0	12974	23.8	1
0	12975	23.8	0
0	12994	23.85	1
0	12995	23.85	2
0	12996	23.85	1
0	12997	23.85	0
0	13010	23.9	1
0	13011	23.9	2
0	13012	23.9	1
0	13013	23.9	0
0	13015	23.9	1
0	13016	23.9	2
0	13017	23.9	1
0	13018	23.9	0
0	13051	23.95	1
0	13052	23.95	2
0	13053	23.95	1
0	13054	23.95	0
0	13067	24	1
0	13068	24	2
0	13069	24	1
0	13070	24	0
0	13072	24	1
0	13073	24	2
0	13074	24	1
0	13075	24	0
0	13094	24.05	1
0	13095	24.05	2
0	13096	24.05	1
0	13097	24.05	0
0	13114	24.1	1
0	13115	24.1	2
0	13116	24.1	1
0	13117	24.1	0
0	13119	24.1	1
0	13120	24.1	2
0	13121	24.1	1
0	13122	24.1	0
0	13171	24.15	1
0	13172	24.15	2
0	13173	24.15	1
0	13174	24.15	0
0	13187	24.2	1
0	13188	24.2	2
0	13189	24.2	1
0	13190	24.2	0
0	13192	24.2	1
0	13193	24.2	2
0	13194	24.2	1
0	13195	24.2	0
0	13214	24.25	1
0	13215	24.25	2
0	13216	24.25	1
0	13217	24.25	0
0	13244	24.3	1
0	13245	24.3	2
0	13246	24.3	1
0	13247	24.3	0
0	13249	24.3	1
0	13250	24.3	2
0	13251	24.3	1
0	13252	24.3	0
0	13285	24.35	1
0	13286	24.35	2
0	13287	24.35	1
0	13288	24.35	0
0	13301	24.4	1
0	13302	24.4	2
0	13303	24.4	1
0	13304	24.4	0
0	13306	24.4	1
0	13307	24.4	2
0	13308	24.4	1
0	13309	24.4	0
0	13328	24.45	1
0	13329	24.45	2
0	13330	24.45	1
0	13331	24.45	0
0	13370	24.5	1
0	13371	24.5	2
0	13372	24.5	1
0	13373	24.5	0
0	13375	24.5	1
0	13376	24.5	2
0	13377	24.5	1
0	13378	24.5	0
0	13397	24.55	1
0	13398	24.55	2
0	13399	24.55	1
0	13400	24.55	0
0	13413	24.6	1
0	13414	24.6	2
0	13415	24.6	1
0	13416	24.6	0
0	13418	24.6	1
0	13419	24.6	2
0	13420	24.6	1
0	13421	24.6	0
0	13440	24.65	1
0	13441	24.65	2
0	13442	24.65	1
0	13443	24.65	0
0	13470	24.7	1
0	13471	24.7	2
0	13472	24.7	1
0	13473	24.7	0
0	13475	24.7	1
0	13476	24.7	2
0	13477	24.7	1
0	13478	24.7	0
0	13497	24.75	1
0	13498	24.75	2
0	13499	24.75	1
0	13500	24.75	0
0	13513	24.8	1
0	13514	24.8	2
0	13515	24.8	1
0	13516	24.8	0
0	13518	24.8	1
0	13519	24.8	2
0	13520	24.8	1
0	13521	24.8	0
0	13543	24.85	1
0	13544	24.85	2
0	13545	24.85	1
0	13546	24.85	0
0	13573	24.9	1
0	13574	24.9	2
0	13575	24.9	1
0	13576	24.9	0
0	13578	24.9	1
0	13579	24.9	2
0	13580	24.9	1
0	13581	24.9	0
0	13600	24.95	1
0	13601	24.95	2
0	13602	24.95	1
0	13603	24.95	0
0	13617	25	1
0	13618	25	2
0	13619	25	1
0	13620	25	0
0	13622	25	1
0	13623	25	2
0	13624	25	1
0	13625	25	0
0	13658	25.05	1
0	13659	25.05	2
0	13660	25.05	1
0	13661	25.05	0
0	13678	25.1	1
0	13679	25.1	2
0	13680	25.1	1
0	13681	25.1	0
0	13683	25.1	1
0	13684	25.1	2
0	13685	25.1	1
0	13686	25.1	0
0	13709	25.15	1
0	13710	25.15	2
0	13711	25.15	1
0	13712	25.15	0
0	13725	25.2	1
0	13726	25.2	2
0	13727	25.2	1
0	13728	25.2	0
0	13730	25.2	1
0	13731	25.2	2
0	13732	25.2	1
0	13733	25.2	0
0	13752	25.25	1
0	13753	25.25	2
0	13754	25.25	1
0	13755	25.25	0
0	13768	25.3	1
0	13769	25.3	2
0	13770	25.3	1
0	13771	25.3	0
0	13773	25.3	1
0	13774	25.3	2
0	13775	25.3	1
0	13776	25.3	0
0	13795	25.35	1
0	13796	25.35	2
0	13797	25.35	1
0	13798	25.35	0
0	13811	25.4	1
0	13812	25.4	2
0	13813	25.4	1
0	13814	25.4	0
0	13816	25.4	1
0	13817	25.4	2
0	13818	25.4	1
0	13819	25.4	0
0	13852	25.45	1
0	13853	25.45	2
0	13854	25.45	1
0	13855	25.45	0
0	13868	25.5	1
0	13869	25.5	2
0	13870	25.5	1
0	13871	25.5	0
0	13873	25.5	1
0	13874	25.5	2
0	13875	25.5	1
0	13876	25.5	0
0	13895	25.55	1
0	13896	25.55	2
0	13897	25.55	1
0	13898	25.55	0
0	13937	25.6	1
0	13938	25.6	2
0	13939	25.6	1
0	13940	25.6	0
0	13942	25.6	1
0	13943	25.6	2
0	13944	25.6	1
0	13945	25.6	0
0	13964	25.65	1
0	13965	25.65	2
0	13966	25.65	1
0	13967	25.65	0
0	13980	25.7	1
0	13981	25.7	2
0	13982	25.7	1
0	13983	25.7	0
0	13985	25.7	1
0	13986	25.7	2
0	13987	25.7	1
0	13988	25.7	0
0	14007	25.75	1
0	14008	25.75	2
0	14009	25.75	1
0	14010	25.75	0
0	14023	25.8	1
0	14024	25.8	2
0	14025	25.8	1
0	14026	25.8	0
0	14028	25.8	1
0	14029	25.8	2
0	14030	25.8	1
0	14031	25.8	0
0	14050	25.85	1
0	14051	25.85	2
0	14052	25.85	1
0	14053	25.85	0
0	14066	25.9	1
0	14067	25.9	2
0	14068	25.9	1
0	14069	25.9	0
0	14071	25.9	1
0	14072	25.9	2
0	14073	25.9	1
0	14074	25.9	0
0	14093	25.95	1
0	14094	25.95	2
0	14095	25.95	1
0	14096	25.95	0
0	14123	26	1
0	14124	26	2
0	14125	26	1
0	14126	26	0
0	14128	26	1
0	14129	26	2
0	14130	26	1
0	14131	26	0
0	14150	26.05	1
0	14151	26.05	2
0	14152	26.05	1
0	14153	26.05	0
0	14170	26.1	1
0	14171	26.1	2
0	14172	26.1	1
0	14173	26.1	0
0	14175	26.1	1
0	14176	26.1	2
0	14177	26.1	1
0	14178	26.1	0
0	14227	26.15	1
0	14228	26.15	2
0	14229	26.15	1
0	14230	26.15	0
0	14243	26.2	1
0	14244	26.2	2
0	14245	26.2	1
0	14246	26.2	0
0	14248	26.2	1
0	14249	26.2	2
0	14250	26.2	1
0	14251	26.2	0
0	14270	26.25	1
0	14271	26.25	2
0	14272	26.25	1
0	14273	26.25	0
0	14296	26.3	1
0	14297	26.3	2
0	14298	26.3	1
0	14299	26.3	0
0	14301	26.3	1
0	14302	26.3	2
0	14303	26.3	1
0	14304	26.3	0
0	14323	26.35	1
0	14324	26.35	2
0	14325	26.35	1
0	14326	26.35	0
0	14339	26.4	1
0	14340	26.4	2
0	14341	26.4	1
0	14342	26.4	0
0	14344	26.4	1
0	14345	26.4	2
0	14346	26.4	1
0	14347	26.4	0
0	14380	26.45	1
0	14381	26.45	2
0	14382	26.45	1
0	14383	26.45	0
0	14396	26.5	1
0	14397	26.5	2
0	14398	26.5	1
0	14399	26.5	0
0	14401	26.5	1
0	14402	26.5	2
0	14403	26.5	1
0	14404	26.5	0
0	14437	26.55	1
0	14438	26.55	2
0	14439	26.55	1
0	14440	26.55	0
0	14453	26.6	1
0	14454	26.6	2
0	14455	26.6	1
0	14456	26.6	0
0	14458	26.6	1
0	14459	26.6	2
0	14460	26.6	1
0	14461	26.6	0
0	14480	26.65	1
0	14481	26.65	2
0	14482	26.65	1
0	14483	26.65	0
0	14506	26.7	1
0	14507	26.7	2
0	14508	26.7	1
0	14509	26.7	0
0	14511	26.7	1
0	14512	26.7	2
0	14513	26.7	1
0	14514	26.7	0
0	14533	26.75	1
0	14534	26.75	2
0	14535	26.75	1
0	14536	26.75	0
0	14549	26.8	1
0	14550	26.8	2
0	14551	26.8	1
0	14552	26.8	0
0	14554	26.8	1
0	14555	26.8	2
0	14556	26.8	1
0	14557	26.8	0
0	14611	26.85	1
0	14612	26.85	2
0	14613	26.85	1
0	14614	26.85	0
0	14627	26.9	1
0	14628	26.9	2
0	14629	26.9	1
0	14630	26.9	0
0	14632	26.9	1
0	14633	26.9	2
0	14634	26.9	1
0	14635	26.9	0
0	14654	26.95	1
0	14655	26.95	2
0	14656	26.95	1
0	14657	26.95	0
0	14687	27	1
0	14688	27	2
0	14689	27	1
0	14690	27	0
0	14692	27	1
0	14693	27	2
0	14694	27	1
0	14695	27	0
0	14714	27.05	1
0	14715	27.05	2
0	14716	27.05	1
0	14717	27.05	0
0	14748	27.1	1
0	14749	27.1	2
0	14750	27.1	1
0	14751	27.1	0
0	14753	27.1	1
0	14754	27.1	2
0	14755	27.1	1
0	14756	27.1	0
0	14779	27.15	1
0	14780	27.15	2
0	14781	27.15	1
0	14782	27.15	0
0	14795	27.2	1
0	14796	27.2	2
0	14797	27.2	1
0	14798	27.2	0
0	14800	27.2	1
0	14801	27.2	2
0	14802	27.2	1
0	14803	27.2	0
0	14848	27.25	1
0	14849	27.25	2
0	14850	27.25	1
0	14851	27.25	0
0	14864	27.3	1
0	14865	27.3	2
0	14866	27.3	1
0	14867	27.3	0
0	14869	27.3	1
0	14870	27.3	2
0	14871	27.3	1
0	14872	27.3	0
0	14891	27.35	1
0	14892	27.35	2
0	14893	27.35	1
0	14894	27.35	0
0	14945	27.4	1
0	14946	27.4	2
0	14947	27.4	1
0	14948	27.4	0
0	14950	27.4	1
0	14951	27.4	2
0	14952	27.4	1
0	14953	27.4	0
0	14972	27.45	1
0	14973	27.45	2
0	14974	27.45	1
0	14975	27.45	0
0	14988	27.5	1
0	14989	27.5	2
0	14990	27.5	1
0	14991	27.5	0
0	14993	27.5	1
0	14994	27.5	2
0	14995	27.5	1
0	14996	27.5	0
0	15029	27.55	1
0	15030	27.55	2
0	15031	27.55	1
0	15032	27.55	0
0	15045	27.6	1
0	15046	27.6	2
0	15047	27.6	2
0	15048	27.6	1
0	15050	27.6	1
0	15051	27.6	2
0	15052	27.6	2
0	15053	27.6	1
0	15084	27.65	1
0	15085	27.65	2
0	15086	27.65	2
0	15087	27.65	1
0	15100	27.7	1
0	15101	27.7	2
0	15102	27.7	2
0	15103	27.7	1
0	15105	27.7	1
0	15106	27.7	2
0	15107	27.7	2
0	15108	27.7	1
0	15129	27.75	1
0	15130	27.75	2
0	15131	27.75	2
0	15132	27.75	1
0	15148	27.8	1
0	15149	27.8	2
0	15150	27.8	2
0	15151	27.8	1
0	15153	27.8	1
0	15154	27.8	2
0	15155	27.8	2
0	15156	27.8	1
0	15177	27.85	1
0	15178	27.85	2
0	15179	27.85	2
0	15180	27.85	1
0	15193	27.9	1
0	15194	27.9	2
0	15195	27.9	2
0	15196	27.9	1
0	15198	27.9	1
0	15199	27.9	2
0	15200	27.9	2
0	15201	27.9	1
0	15236	27.95	1
0	15237	27.95	2
0	15238	27.95	2
0	15239	27.95	1
0	15252	28	1
0	15253	28	2
0	15254	28	2
0	15255	28	1
0	15257	28	1
0	15258	28	2
0	15259	28	2
0	15260	28	1
0	15281	28.05	1
0	15282	28.05	2
0	15283	28.05	2
0	15284	28.05	1
0	15315	28.1	1
0	15316	28.1	2
0	15317	28.1	2
0	15318	28.1	1
0	15320	28.1	1
0	15321	28.1	2
0	15322	28.1	2
0	15323	28.1	1
0	15348	28.15	1
0	15349	28.15	2
0	15350	28.15	2
0	15351	28.15	1
0	15364	28.2	1
0	15365	28.2	2
0	15366	28.2	2
0	15367	28.2	1
0	15369	28.2	1
0	15370	28.2	2
0	15371	28.2	2
0	15372	28.2	1
0	15393	28.25	1
0	15394	28.25	2
0	15395	28.25	2
0	15396	28.25	1
0	15409	28.3	1
0	15410	28.3	2
0	15411	28.3	2
0	15412	28.3	1
0	15414	28.3	1
0	15415	28.3	2
0	15416	28.3	2
0	15417	28.3	1
0	15438	28.35	1
0	15439	28.35	2
0	15440	28.35	2
0	15441	28.35	1
0	15454	28.4	1
0	15455	28.4	2
0	15456	28.4	2
0	15457	28.4	1
0	15459	28.4	1
0	15460	28.4	2
0	15461	28.4	2
0	15462	28.4	1
0	15483	28.45	1
0	15484	28.45	2
0	15485	28.45	2
0	15486	28.45	1
0	15525	28.5	1
0	15526	28.5	2
0	15527	28.5	2
0	15528	28.5	1
0	15530	28.5	1
0	15531	28.5	2
0	15532	28.5	2
0	15533	28.5	1
0	15554	28.55	1
0	15555	28.55	2
0	15556	28.55	2
0	15557	28.55	1
0	15570	28.6	1
0	15571	28.6	2
0	15572	28.6	2
0	15573	28.6	1
0	15575	28.6	1
0	15576	28.6	2
0	15577	28.6	2
0	15578	28.6	1
0	15613	28.65	1
0	15614	28.65	2
0	15615	28.65	2
0	15616	28.65	1
0	15635	28.7	1
0	15636	28.7	2
0	15637	28.7	2
0	15638	28.7	1
0	15640	28.7	1
0	15641	28.7	2
0	15642	28.7	2
0	15643	28.7	1
0	15664	28.75	1
0	15665	28.75	2
0	15666	28.75	2
0	15667	28.75	1
0	15680	28.8	1
0	15681	28.8	2
0	15682	28.8	2
0	15683	28.8	1
0	15685	28.8	1
0	15686	28.8	2
0	15687	28.8	2
0	15688	28.8	1
0	15709	28.85	1
0	15710	28.85	2
0	15711	28.85	2
0	15712	28.85	1
0	15725	28.9	1
0	15726	28.9	2
0	15727	28.9	2
0	15728	28.9	1
0	15730	28.9	1
0	15731	28.9	2
0	15732	28.9	2
0	15733	28.9	1
0	15754	28.95	1
0	15755	28.95	2
0	15756	28.95	2
0	15757	28.95	1
0	15770	29	1
0	15771	29	2
0	15772	29	2
0	15773	29	1
0	15775	29	1
0	15776	29	2
0	15777	29	2
0	15778	29	1
0	15813	29.05	1
0	15814	29.05	2
0	15815	29.05	2
0	15816	29.05	1
0	15833	29.1	1
0	15834	29.1	2
0	15835	29.1	2
0	15836	29.1	1
0	15838	29.1	1
0	15839	29.1	2
0	15840	29.1	2
0	15841	29.1	1
0	15866	29.15	1
0	15867	29.15	2
0	15868	29.15	2
0	15869	29.15	1
0	15885	29.2	1
0	15886	29.2	2
0	15887	29.2	2
0	15888	29.2	1
0	15890	29.2	1
0	15891	29.2	2
0	15892	29.2	2
0	15893	29.2	1
0	15928	29.25	1
0	15929	29.25	2
0	15930	29.25	2
0	15931	29.25	1
0	15944	29.3	1
0	15945	29.3	2
0	15946	29.3	2
0	15947	29.3	1
0	15949	29.3	1
0	15950	29.3	2
0	15951	29.3	2
0	15952	29.3	1
0	15973	29.35	1
0	15974	29.35	2
0	15975	29.35	2
0	15976	29.35	1
0	16027	29.4	1
0	16028	29.4	2
0	16029	29.4	2
0	16030	29.4	1
0	16032	29.4	1
0	16033	29.4	2
0	16034	29.4	2
0	16035	29.4	1
0	16056	29.45	1
0	16057	29.45	2
0	16058	29.45	2
0	16059	29.45	1
0	16072	29.5	1
0	16073	29.5	2
0	16074	29.5	2
0	16075	29.5	1
0	16077	29.5	1
0	16078	29.5	2
0	16079	29.5	2
0	16080	29.5	1
0	16101	29.55	1
0	16102	29.55	2
0	16103	29.55	2
0	16104	29.55	1
0	16117	29.6	1
0	16118	29.6	2
0	16119	29.6	2
0	16120	29.6	1
0	16122	29.6	1
0	16123	29.6	2
0	16124	29.6	2
0	16125	29.6	1
0	16146	29.65	1
0	16147	29.65	2
0	16148	29.65	2
0	16149	29.65	1
0	16162	29.7	1
0	16163	29.7	2
0	16164	29.7	2
0	16165	29.7	1
0	16167	29.7	1
0	16168	29.7	2
0	16169	29.7	2
0	16170	29.7	1
0	16191	29.75	1
0	16192	29.75	2
0	16193	29.75	2
0	16194	29.75	1
0	16221	29.8	1
0	16222	29.8	2
0	16223	29.8	2
0	16224	29.8	1
0	16226	29.8	1
0	16227	29.8	2
0	16228	29.8	2
0	16229	29.8	1
0	16250	29.85	1
0	16251	29.85	2
0	16252	29.85	2
0	16253	29.85	1
0	16266	29.9	1
0	16267	29.9	2
0	16268	29.9	2
0	16269	29.9	1
0	16271	29.9	1
0	16272	29.9	2
0	16273	29.9	2
0	16274	29.9	1
0	16309	29.95	1
0	16310	29.95	2
0	16311	29.95	2
0	16312	29.95	1
0	16326	30	1
0	16327	30	2
0	16328	30	2
0	16329	30	1
0	16331	30	1
0	16332	30	2
0	16333	30	2
0	16334	30	1
0	16355	30.05	1
0	16356	30.05	2
0	16357	30.05	2
0	16358	30.05	1
0	16375	30.1	1
0	16376	30.1	2
0	16377	30.1	2
0	16378	30.1	1
0	16380	30.1	1
0	16381	30.1	2
0	16382	30.1	2
0	16383	30.1	1
0	16408	30.15	1
0	16409	30.15	2
0	16410	30.15	2
0	16411	30.15	1
0	16424	30.2	1
0	16425	30.2	2
0	16426	30.2	2
0	16427	30.2	1
0	16429	30.2	1
0	16430	30.2	2
0	16431	30.2	2
0	16432	30.2	1
0	16453	30.25	1
0	16454	30.25	2
0	16455	30.25	2
0	16456	30.25	1
0	16475	30.3	1
0	16476	30.3	2
0	16477	30.3	2
0	16478	30.3	1
0	16480	30.3	1
0	16481	30.3	2
0	16482	30.3	2
0	16483	30.3	1
0	16518	30.35	1
0	16519	30.35	2
0	16520	30.35	2
0	16521	30.35	1
0	16534	30.4	1
0	16535	30.4	2
0	16536	30.4	2
0	16537	30.4	1
0	16539	30.4	1
0	16540	30.4	2
0	16541	30.4	2
0	16542	30.4	1
0	16563	30.45	1
0	16564	30.45	2
0	16565	30.45	2
0	16566	30.45	1
0	16602	30.5	1
0	16603	30.5	2
0	16604	30.5	2
0	16605	30.5	1
0	16607	30.5	1
0	16608	30.5	2
0	16609	30.5	2
0	16610	30.5	1
0	16631	30.55	1
0	16632	30.55	2
0	16633	30.55	2
0	16634	30.55	1
0	16647	30.6	1
0	16648	30.6	2
0	16649	30.6	2
0	16650	30.6	1
0	16652	30.6	1
0	16653	30.6	2
0	16654	30.6	2
0	16655	30.6	1
0	16711	30.65	1
0	16712	30.65	2
0	16713	30.65	2
0	16714	30.65	1
0	16727	30.7	1
0	16728	30.7	2
0	16729	30.7	2
0	16730	30.7	1
0	16732	30.7	1
0	16733	30.7	2
0	16734	30.7	2
0	16735	30.7	1
0	16756	30.75	1
0	16757	30.75	2
0	16758	30.75	2
0	16759	30.75	1
0	16786	30.8	1
0	16787	30.8	2
0	16788	30.8	2
0	16789	30.8	1
0	16791	30.8	1
0	16792	30.8	2
0	16793	30.8	2
0	16794	30.8	1
0	16815	30.85	1
0	16816	30.85	2
0	16817	30.85	2
0	16818	30.85	1
0	16845	30.9	1
0	16846	30.9	2
0	16847	30.9	2
0	16848	30.9	1
0	16850	30.9	1
0	16851	30.9	2
0	16852	30.9	2
0	16853	30.9	1
0	16874	30.95	1
0	16875	30.95	2
0	16876	30.95	2
0	16877	30.95	1
0	16890	31	1
0	16891	31	2
0	16892	31	2
0	16893	31	1
0	16895	31	1
0	16896	31	2
0	16897	31	2
0	16898	31	1
0	16945	31.05	1
0	16946	31.05	2
0	16947	31.05	2
0	16948	31.05	1
0	16965	31.1	1
0	16966	31.1	2
0	16967	31.1	2
0	16968	31.1	1
0	16970	31.1	1
0	16971	31.1	2
0	16972	31.1	2
0	16973	31.1	1
0	16998	31.15	1
0	16999	31.15	2
0	17000	31.15	2
0	17001	31.15	1
0	17043	31.2	1
0	17044	31.2	2
0	17045	31.2	2
0	17046	31.2	1
0	17048	31.2	1
0	17049	31.2	2
0	17050	31.2	2
0	17051	31.2	1
0	17072	31.25	1
0	17073	31.25	2
0	17074	31.25	2
0	17075	31.25	1
0	17088	31.3	1
0	17089	31.3	2
0	17090	31.3	2
0	17091	31.3	1
0	17093	31.3	1
0	17094	31.3	2
0	17095	31.3	2
0	17096	31.3	1
0	17127	31.35	1
0	17128	31.35	2
0	17129	31.35	2
0	17130	31.35	1
0	17143	31.4	1
0	17144	31.4	2
0	17145	31.4	2
0	17146	31.4	1
0	17148	31.4	1
0	17149	31.4	2
0	17150	31.4	2
0	17151	31.4	1
0	17186	31.45	1
0	17187	31.45	2
0	17188	31.45	2
0	17189	31.45	1
0	17202	31.5	1
0	17203	31.5	2
0	17204	31.5	2
0	17205	31.5	1
0	17207	31.5	1
0	17208	31.5	2
0	17209	31.5	2
0	17210	31.5	1
0	17231	31.55	1
0	17232	31.55	2
0	17233	31.55	2
0	17234	31.55	1
0	17273	31.6	1
0	17274	31.6	2
0	17275	31.6	2
0	17276	31.6	1
0	17278	31.6	1
0	17279	31.6	2
0	17280	31.6	2
0	17281	31.6	1
0	17302	31.65	1
0	17303	31.65	2
0	17304	31.65	2
0	17305	31.65	1
0	17318	31.7	1
0	17319	31.7	2
0	17320	31.7	2
0	17321	31.7	1
0	17323	31.7	1
0	17324	31.7	2
0	17325	31.7	2
0	17326	31.7	1
0	17373	31.75	1
0	17374	31.75	2
0	17375	31.75	2
0	17376	31.75	1
0	17389	31.8	1
0	17390	31.8	2
0	17391	31.8	2
0	17392	31.8	1
0	17394	31.8	1
0	17395	31.8	2
0	17396	31.8	2
0	17397	31.8	1
0	17418	31.85	1
0	17419	31.85	2
0	17420	31.85	2
0	17421	31.85	1
0	17461	31.9	1
0	17462	31.9	2
0	17463	31.9	2
0	17464	31.9	1
0	17466	31.9	1
0	17467	31.9	2
0	17468	31.9	2
0	17469	31.9	1
0	17490	31.95	1
0	17491	31.95	2
0	17492	31.95	2
0	17493	31.95	1
0	17523	32	1
0	17524	32	2
0	17525	32	2
0	17526	32	1
0	17528	32	1
0	17529	32	2
0	17530	32	2
0	17531	32	1
0	17552	32.05	1
0	17553	32.05	2
0	17554	32.05	2
0	17555	32.05	1
0	17572	32.1	1
0	17573	32.1	2
0	17574	32.1	2
0	17575	32.1	1
0	17577	32.1	1
0	17578	32.1	2
0	17579	32.1	2
0	17580	32.1	1
0	17631	32.15	1
0	17632	32.15	2
0	17633	32.15	2
0	17634	32.15	1
0	17647	32.2	1
0	17648	32.2	2
0	17649	32.2	2
0	17650	32.2	1
0	17652	32.2	1
0	17653	32.2	2
0	17654	32.2	2
0	17655	32.2	1
0	17676	32.25	1
0	17677	32.25	2
0	17678	32.25	2
0	17679	32.25	1
0	17702	32.3	1
0	17703	32.3	2
0	17704	32.3	2
0	17705	32.3	1
0	17707	32.3	1
0	17708	32.3	2
0	17709	32.3	2
0	17710	32.3	1
0	17731	32.35	1
0	17732	32.35	2
0	17733	32.35	2
0	17734	32.35	1
0	17750	32.4	1
0	17751	32.4	2
0	17752	32.4	2
0	17753	32.4	1
0	17755	32.4	1
0	17756	32.4	2
0	17757	32.4	2
0	17758	32.4	1
0	17793	32.45	1
0	17794	32.45	2
0	17795	32.45	2
0	17796	32.45	1
0	17809	32.5	1
0	17810	32.5	2
0	17811	32.5	2
0	17812	32.5	1
0	17814	32.5	1
0	17815	32.5	2
0	17816	32.5	2
0	17817	32.5	1
0	17852	32.55	1
0	17853	32.55	2
0	17854	32.55	2
0	17855	32.55	1
0	17868	32.6	1
0	17869	32.6	2
0	17870	32.6	2
0	17871	32.6	1
0	17873	32.6	1
0	17874	32.6	2
0	17875	32.6	2
0	17876	32.6	1
0	17897	32.65	1
0	17898	32.65	2
0	17899	32.65	2
0	17900	32.65	1
0	17927	32.7	1
0	17928	32.7	2
0	17929	32.7	2
0	17930	32.7	1
0	17932	32.7	1
0	17933	32.7	2
0	17934	32.7	2
0	17935	32.7	1
0	17956	32.75	1
0	17957	32.75	2
0	17958	32.75	2
0	17959	32.75	1
0	17972	32.8	1
0	17973	32.8	2
0	17974	32.8	2
0	17975	32.8	1
0	17977	32.8	1
0	17978	32.8	2
0	17979	32.8	2
0	17980	32.8	1
0	18018	32.85	1
0	18019	32.85	2
0	18020	32.85	2
0	18021	32.85	1
0	18034	32.9	1
0	18035	32.9	2
0	18036	32.9	2
0	18037	32.9	1
0	18039	32.9	1
0	18040	32.9	2
0	18041	32.9	2
0	18042	32.9	1
0	18063	32.95	1
0	18064	32.95	2
0	18065	32.95	2
0	18066	32.95	1
0	18093	33	1
0	18094	33	2
0	18095	33	2
0	18096	33	1
0	18098	33	1
0	18099	33	2
0	18100	33	2
0	18101	33	1
0	18122	33.05	1
0	18123	33.05	2
0	18124	33.05	2
0	18125	33.05	1
0	18156	33.1	1
0	18157	33.1	2
0	18158	33.1	2
0	18159	33.1	1
0	18161	33.1	1
0	18162	33.1	2
0	18163	33.1	2
0	18164	33.1	1
0	18189	33.15	1
0	18190	33.15	2
0	18191	33.15	2
0	18192	33.15	1
0	18205	33.2	1
0	18206	33.2	2
0	18207	33.2	2
0	18208	33.2	1
0	18210	33.2	1
0	18211	33.2	2
0	18212	33.2	2
0	18213	33.2	1
0	18260	33.25	1
0	18261	33.25	2
0	18262	33.25	2
0	18263	33.25	1
0	18276	33.3	1
0	18277	33.3	2
0	18278	33.3	2
0	18279	33.3	1
0	18281	33.3	1
0	18282	33.3	2
0	18283	33.3	2
0	18284	33.3	1
0	18305	33.35	1
0	18306	33.35	2
0	18307	33.35	2
0	18308	33.35	1
0	18324	33.4	1
0	18325	33.4	2
0	18326	33.4	2
0	18327	33.4	1
0	18329	33.4	1
0	18330	33.4	2
0	18331	33.4	2
0	18332	33.4	1
0	18356	33.45	1
0	18357	33.45	2
0	18358	33.45	2
0	18359	33.45	1
0	18372	33.5	1
0	18373	33.5	2
0	18374	33.5	2
0	18375	33.5	1
0	18377	33.5	1
0	18378	33.5	2
0	18379	33.5	2
0	18380	33.5	1
0	18401	33.55	1
0	18402	33.55	2
0	18403	33.55	2
0	18404	33.55	1
0	18417	33.6	1
0	18418	33.6	2
0	18419	33.6	2
0	18420	33.6	1
0	18422	33.6	1
0	18423	33.6	2
0	18424	33.6	2
0	18425	33.6	1
0	18460	33.65	1
0	18461	33.65	2
0	18462	33.65	2
0	18463	33.65	1
0	18476	33.7	1
0	18477	33.7	2
0	18478	33.7	2
0	18479	33.7	1
0	18481	33.7	1
0	18482	33.7	2
0	18483	33.7	2
0	18484	33.7	1
0	18505	33.75	1
0	18506	33.75	2
0	18507	33.75	2
0	18508	33.75	1
0	18535	33.8	1
0	18536	33.8	2
0	18537	33.8	2
0	18538	33.8	1
0	18540	33.8	1
0	18541	33.8	2
0	18542	33.8	2
0	18543	33.8	1
0	18564	33.85	1
0	18565	33.85	2
0	18566	33.85	2
0	18567	33.85	1
0	18580	33.9	1
0	18581	33.9	2
0	18582	33.9	2
0	18583	33.9	1
0	18585	33.9	1
0	18586	33.9	2
0	18587	33.9	2
0	18588	33.9	1
0	18609	33.95	1
0	18610	33.95	2
0	18611	33.95	2
0	18612	33.95	1
0	18628	34	1
0	18629	34	2
0	18630	34	2
0	18631	34	1
0	18633	34	1
0	18634	34	2
0	18635	34	2
0	18636	34	1
0	18657	34.05	1
0	18658	34.05	2
0	18659	34.05	2
0	18660	34.05	1
0	18677	34.1	1
0	18678	34.1	2
0	18679	34.1	2
0	18680	34.1	1
0	18682	34.1	1
0	18683	34.1	2
0	18684	34.1	2
0	18685	34.1	1
0	18710	34.15	1
0	18711	34.15	2
0	18712	34.15	2
0	18713	34.15	1
0	18740	34.2	1
0	18741	34.2	2
0	18742	34.2	2
0	18743	34.2	1
0	18745	34.2	1
0	18746	34.2	2
0	18747	34.2	2
0	18748	34.2	1
0	18769	34.25	1
0	18770	34.25	2
0	18771	34.25	2
0	18772	34.25	1
0	18785	34.3	1
0	18786	34.3	2
0	18787	34.3	2
0	18788	34.3	1
0	18790	34.3	1
0	18791	34.3	2
0	18792	34.3	2
0	18793	34.3	1
0	18840	34.35	1
0	18841	34.35	2
0	18842	34.35	2
0	18843	34.35	1
0	18856	34.4	1
0	18857	34.4	2
0	18858	34.4	2
0	18859	34.4	1
0	18861	34.4	1
0	18862	34.4	2
0	18863	34.4	2
0	18864	34.4	1
0	18885	34.45	1
0	18886	34.45	2
0	18887	34.45	2
0	18888	34.45	1
0	18901	34.5	1
0	18902	34.5	2
0	18903	34.5	2
0	18904	34.5	1
0	18906	34.5	1
0	18907	34.5	2
0	18908	34.5	2
0	18909	34.5	1
0	18930	34.55	1
0	18931	34.55	2
0	18932	34.55	2
0	18933	34.55	1
0	18960	34.6	1
0	18961	34.6	2
0	18962	34.6	2
0	18963	34.6	1
0	18965	34.6	1
0	18966	34.6	2
0	18967	34.6	2
0	18968	34.6	1
0	18989	34.65	1
0	18990	34.65	2
0	18991	34.65	2
0	18992	34.65	1
0	19005	34.7	1
0	19006	34.7	2
0	19007	34.7	2
0	19008	34.7	1
0	19010	34.7	1
0	19011	34.7	2
0	19012	34.7	2
0	19013	34.7	1
0	19088	34.75	1
0	19089	34.75	2
0	19090	34.75	2
0	19091	34.75	1
0	19105	34.8	1
0	19106	34.8	2
0	19107	34.8	2
0	19108	34.8	1
0	19110	34.8	1
0	19111	34.8	2
0	19112	34.8	2
0	19113	34.8	1
0	19134	34.85	1
0	19135	34.85	2
0	19136	34.85	2
0	19137	34.85	1
0	19164	34.9	1
0	19165	34.9	2
0	19166	34.9	2
0	19167	34.9	1
0	19169	34.9	1
0	19170	34.9	2
0	19171	34.9	2
0	19172	34.9	1
0	19193	34.95	1
0	19194	34.95	2
0	19195	34.95	2
0	19196	34.95	1
0	19210	35	1
0	19211	35	2
0	19212	35	2
0	19213	35	1
0	19215	35	1
0	19216	35	2
0	19217	35	2
0	19218	35	1
0	19242	35.05	1
0	19243	35.05	2
0	19244	35.05	2
0	19245	35.05	1
0	19262	35.1	1
0	19263	35.1	2
0	19264	35.1	2
0	19265	35.1	1
0	19267	35.1	1
0	19268	35.1	2
0	19269	35.1	2
0	19270	35.1	1
0	19305	35.15	1
0	19306	35.15	2
0	19307	35.15	2
0	19308	35.15	1
0	19321	35.2	1
0	19322	35.2	2
0	19323	35.2	2
0	19324	35.2	1
0	19326	35.2	1
0	19327	35.2	2
0	19328	35.2	2
0	19329	35.2	1
0	19350	35.25	1
0	19351	35.25	2
0	19352	35.25	2
0	19353	35.25	1
0	19418	35.3	1
0	19419	35.3	2
0	19420	35.3	2
0	19421	35.3	1
0	19423	35.3	1
0	19424	35.3	2
0	19425	35.3	2
0	19426	35.3	1
0	19447	35.35	1
0	19448	35.35	2
0	19449	35.35	2
0	19450	35.35	1
0	19463	35.4	1
0	19464	35.4	2
0	19465	35.4	2
0	19466	35.4	1
0	19468	35.4	1
0	19469	35.4	2
0	19470	35.4	2
0	19471	35.4	1
0	19518	35.45	1
0	19519	35.45	2
0	19520	35.45	2
0	19521	35.45	1
0	19534	35.5	1
0	19535	35.5	2
0	19536	35.5	2
0	19537	35.5	1
0	19539	35.5	1
0	19540	35.5	2
0	19541	35.5	2
0	19542	35.5	1
0	19563	35.55	1
0	19564	35.55	2
0	19565	35.55	2
0	19566	35.55	1
0	19582	35.6	1
0	19583	35.6	2
0	19584	35.6	2
0	19585	35.6	1
0	19587	35.6	1
0	19588	35.6	2
0	19589	35.6	2
0	19590	35.6	1
0	19611	35.65	1
0	19612	35.65	2
0	19613	35.65	2
0	19614	35.65	1
0	19630	35.7	1
0	19631	35.7	2
0	19632	35.7	2
0	19633	35.7	1
0	19635	35.7	1
0	19636	35.7	2
0	19637	35.7	2
0	19638	35.7	1
0	19659	35.75	1
0	19660	35.75	2
0	19661	35.75	2
0	19662	35.75	1
0	19675	35.8	1
0	19676	35.8	2
0	19677	35.8	2
0	19678	35.8	1
0	19680	35.8	1
0	19681	35.8	2
0	19682	35.8	2
0	19683	35.8	1
0	19718	35.85	1
0	19719	35.85	2
0	19720	35.85	2
0	19721	35.85	1
0	19734	35.9	1
0	19735	35.9	2
0	19736	35.9	2
0	19737	35.9	1
0	19739	35.9	1
0	19740	35.9	2
0	19741	35.9	2
0	19742	35.9	1
0	19763	35.95	1
0	19764	35.95	2
0	19765	35.95	2
0	19766	35.95	1
0	19793	36	1
0	19794	36	2
0	19795	36	2
0	19796	36	1
0	19798	36	1
0	19799	36	2
0	19800	36	2
0	19801	36	1
0	19822	36.05	1
0	19823	36.05	2
0	19824	36.05	2
0	19825	36.05	1
0	19842	36.1	1
0	19843	36.1	2
0	19844	36.1	2
0	19845	36.1	1
0	19847	36.1	1
0	19848	36.1	2
0	19849	36.1	2
0	19850	36.1	1
0	19875	36.15	1
0	19876	36.15	2
0	19877	36.15	2
0	19878	36.15	1
0	19891	36.2	1
0	19892	36.2	2
0	19893	36.2	2
0	19894	36.2	1
0	19896	36.2	1
0	19897	36.2	2
0	19898	36.2	2
0	19899	36.2	1
0	19920	36.25	1
0	19921	36.25	2
0	19922	36.25	2
0	19923	36.25	1
0	19936	36.3	1
0	19937	36.3	2
0	19938	36.3	2
0	19939	36.3	1
0	19941	36.3	1
0	19942	36.3	2
0	19943	36.3	2
0	19944	36.3	1
0	19965	36.35	1
0	19966	36.35	2
0	19967	36.35	2
0	19968	36.35	1
0	19995	36.4	1
0	19996	36.4	2
0	19997	36.4	2
0	19998	36.4	1
0	20000	36.4	1
0	20001	36.4	2
0	20002	36.4	2
0	20003	36.4	1
0	20024	36.45	1
0	20025	36.45	2
0	20026	36.45	2
0	20027	36.45	1
0	20040	36.5	1
0	20041	36.5	2
0	20042	36.5	2
0	20043	36.5	1
0	20045	36.5	1
0	20046	36.5	2
0	20047	36.5	2
0	20048	36.5	1
0	20072	36.55	1
0	20073	36.55	2
0	20074	36.55	2
0	20075	36.55	1
0	20088	36.6	1
0	20089	36.6	2
0	20090	36.6	2
0	20091	36.6	1
0	20093	36.6	1
0	20094	36.6	2
0	20095	36.6	2
0	20096	36.6	1
0	20131	36.65	1
0	20132	36.65	2
0	20133	36.65	2
0	20134	36.65	1
0	20147	36.7	1
0	20148	36.7	2
0	20149	36.7	2
0	20150	36.7	1
0	20152	36.7	1
0	20153	36.7	2
0	20154	36.7	2
0	20155	36.7	1
0	20176	36.75	1
0	20177	36.75	2
0	20178	36.75	2
0	20179	36.75	1
0	20195	36.8	1
0	20196	36.8	2
0	20197	36.8	2
0	20198	36.8	1
0	20200	36.8	1
0	20201	36.8	2
0	20202	36.8	2
0	20203	36.8	1
0	20224	36.85	1
0	20225	36.85	2
0	20226	36.85	2
0	20227	36.85	1
0	20257	36.9	1
0	20258	36.9	2
0	20259	36.9	2
0	20260	36.9	1
0	20262	36.9	1
0	20263	36.9	2
0	20264	36.9	2
0	20265	36.9	1
0	20286	36.95	1
0	20287	36.95	2
0	20288	36.95	2
0	20289	36.95	1
0	20305	37	1
0	20306	37	2
0	20307	37	2
0	20308	37	1
0	20310	37	1
0	20311	37	2
0	20312	37	2
0	20313	37	1
0	20337	37.05	1
0	20338	37.05	2
0	20339	37.05	2
0	20340	37.05	1
0	20357	37.1	1
0	20358	37.1	2
0	20359	37.1	2
0	20360	37.1	1
0	20362	37.1	1
0	20363	37.1	2
0	20364	37.1	2
0	20365	37.1	1
0	20390	37.15	1
0	20391	37.15	2
0	20392	37.15	2
0	20393	37.15	1
0	20406	37.2	1
0	20407	37.2	2
0	20408	37.2	2
0	20409	37.2	1
0	20411	37.2	1
0	20412	37.2	2
0	20413	37.2	2
0	20414	37.2	1
0	20435	37.25	1
0	20436	37.25	2
0	20437	37.25	2
0	20438	37.25	1
0	20451	37.3	1
0	20452	37.3	2
0	20453	37.3	2
0	20454	37.3	1
0	20456	37.3	1
0	20457	37.3	2
0	20458	37.3	2
0	20459	37.3	1
0	20480	37.35	1
0	20481	37.35	2
0	20482	37.35	2
0	20483	37.35	1
0	20496	37.4	1
0	20497	37.4	2
0	20498	37.4	2
0	20499	37.4	1
0	20501	37.4	1
0	20502	37.4	2
0	20503	37.4	2
0	20504	37.4	1
0	20525	37.45	1
0	20526	37.45	2
0	20527	37.45	2
0	20528	37.45	1
0	20541	37.5	1
0	20542	37.5	2
0	20543	37.5	2
0	20544	37.5	1
0	20546	37.5	1
0	20547	37.5	2
0	20548	37.5	2
0	20549	37.5	1
0	20570	37.55	1
0	20571	37.55	2
0	20572	37.55	2
0	20573	37.55	1
0	20586	37.6	1
0	20587	37.6	2
0	20588	37.6	2
0	20589	37.6	1
0	20591	37.6	1
0	20592	37.6	2
0	20593	37.6	2
0	20594	37.6	1
0	20615	37.65	1
0	20616	37.65	2
0	20617	37.65	2
0	20618	37.65	1
0	20631	37.7	1
0	20632	37.7	2
0	20633	37.7	2
0	20634	37.7	1
0	20636	37.7	1
0	20637	37.7	2
0	20638	37.7	2
0	20639	37.7	1
0	20660	37.75	1
0	20661	37.75	2
0	20662	37.75	2
0	20663	37.75	1
0	20676	37.8	1
0	20677	37.8	2
0	20678	37.8	2
0	20679	37.8	1
0	20681	37.8	1
0	20682	37.8	2
0	20683	37.8	2
0	20684	37.8	1
0	20705	37.85	1
0	20706	37.85	2
0	20707	37.85	2
0	20708	37.85	1
0	20721	37.9	1
0	20722	37.9	2
0	20723	37.9	2
0	20724	37.9	1
0	20726	37.9	1
0	20727	37.9	2
0	20728	37.9	2
0	20729	37.9	1
0	20750	37.95	1
0	20751	37.95	2
0	20752	37.95	2
0	20753	37.95	1
0	20780	38	1
0	20781	38	2
0	20782	38	2
0	20783	38	1
0	20785	38	1
0	20786	38	2
0	20787	38	2
0	20788	38	1
0	20809	38.05	1
0	20810	38.05	2
0	20811	38.05	2
0	20812	38.05	1
0	20829	38.1	1
0	20830	38.1	2
0	20831	38.1	2
0	20832	38.1	1
0	20834	38.1	1
0	20835	38.1	2
0	20836	38.1	2
0	20837	38.1	1
0	20902	38.15	1
0	20903	38.15	2
0	20904	38.15	2
0	20905	38.15	1
0	20928	38.2	1
0	20929	38.2	2
0	20930	38.2	2
0	20931	38.2	1
0	20933	38.2	1
0	20934	38.2	2
0	20935	38.2	2
0	20936	38.2	1
0	20967	38.25	1
0	20968	38.25	2
0	20969	38.25	2
0	20970	38.25	1
0	20983	38.3	1
0	20984	38.3	2
0	20985	38.3	2
0	20986	38.3	1
0	20988	38.3	1
0	20989	38.3	2
0	20990	38.3	2
0	20991	38.3	1
0	21012	38.35	1
0	21013	38.35	2
0	21014	38.35	2
0	21015	38.35	1
0	21031	38.4	1
0	21032	38.4	2
0	21033	38.4	2
0	21034	38.4	1
0	21036	38.4	1
0	21037	38.4	2
0	21038	38.4	2
0	21039	38.4	1
0	21060	38.45	1
0	21061	38.45	2
0	21062	38.45	2
0	21063	38.45	1
0	21116	38.5	1
0	21117	38.5	2
0	21118	38.5	2
0	21119	38.5	1
0	21121	38.5	1
0	21122	38.5	2
0	21123	38.5	2
0	21124	38.5	1
0	21166	38.55	1
0	21167	38.55	2
0	21168	38.55	2
0	21169	38.55	1
0	21182	38.6	1
0	21183	38.6	2
0	21184	38.6	2
0	21185	38.6	1
0	21187	38.6	1
0	21188	38.6	2
0	21189	38.6	2
0	21190	38.6	1
0	21214	38.65	1
0	21215	38.65	2
0	21216	38.65	2
0	21217	38.65	1
0	21244	38.7	1
0	21245	38.7	2
0	21246	38.7	2
0	21247	38.7	1
0	21249	38.7	1
0	21250	38.7	2
0	21251	38.7	2
0	21252	38.7	1
0	21273	38.75	1
0	21274	38.75	2
0	21275	38.75	2
0	21276	38.75	1
0	21289	38.8	1
0	21290	38.8	2
0	21291	38.8	2
0	21292	38.8	1
0	21294	38.8	1
0	21295	38.8	2
0	21296	38.8	2
0	21297	38.8	1
0	21318	38.85	1
0	21319	38.85	2
0	21320	38.85	2
0	21321	38.85	1
0	21334	38.9	1
0	21335	38.9	2
0	21336	38.9	2
0	21337	38.9	1
0	21339	38.9	1
0	21340	38.9	2
0	21341	38.9	2
0	21342	38.9	1
0	21363	38.95	1
0	21364	38.95	2
0	21365	38.95	2
0	21366	38.95	1
0	21379	39	1
0	21380	39	2
0	21381	39	2
0	21382	39	1
0	21384	39	1
0	21385	39	2
0	21386	39	2
0	21387	39	1
0	21408	39.05	1
0	21409	39.05	2
0	21410	39.05	2
0	21411	39.05	1
0	21442	39.1	1
0	21443	39.1	2
0	21444	39.1	2
0	21445	39.1	1
0	21447	39.1	1
0	21448	39.1	2
0	21449	39.1	2
0	21450	39.1	1
0	21475	39.15	1
0	21476	39.15	2
0	21477	39.15	2
0	21478	39.15	1
0	21491	39.2	1
0	21492	39.2	2
0	21493	39.2	2
0	21494	39.2	1
0	21496	39.2	1
0	21497	39.2	2
0	21498	39.2	2
0	21499	39.2	1
0	21530	39.25	1
0	21531	39.25	2
0	21532	39.25	2
0	21533	39.25	1
0	21546	39.3	1
0	21547	39.3	2
0	21548	39.3	2
0	21549	39.3	1
0	21551	39.3	1
0	21552	39.3	2
0	21553	39.3	2
0	21554	39.3	1
0	21575	39.35	1
0	21576	39.35	2
0	21577	39.35	2
0	21578	39.35	1
0	21591	39.4	1
0	21592	39.4	2
0	21593	39.4	2
0	21594	39.4	1
0	21596	39.4	1
0	21597	39.4	2
0	21598	39.4	2
0	21599	39.4	1
0	21620	39.45	1
0	21621	39.45	2
0	21622	39.45	2
0	21623	39.45	1
0	21636	39.5	1
0	21637	39.5	2
0	21638	39.5	2
0	21639	39.5	1
0	21641	39.5	1
0	21642	39.5	2
0	21643	39.5	2
0	21644	39.5	1
0	21665	39.55	1
0	21666	39.55	2
0	21667	39.55	2
0	21668	39.55	1
0	21681	39.6	1
0	21682	39.6	2
0	21683	39.6	2
0	21684	39.6	1
0	21686	39.6	1
0	21687	39.6	2
0	21688	39.6	2
0	21689	39.6	1
0	21724	39.65	1
0	21725	39.65	2
0	21726	39.65	2
0	21727	39.65	1
0	21740	39.7	1
0	21741	39.7	2
0	21742	39.7	2
0	21743	39.7	1
0	21745	39.7	1
0	21746	39.7	2
0	21747	39.7	2
0	21748	39.7	1
0	21769	39.75	1
0	21770	39.75	2
0	21771	39.75	2
0	21772	39.75	1
0	21811	39.8	1
0	21812	39.8	2
0	21813	39.8	2
0	21814	39.8	1
0	21816	39.8	1
0	21817	39.8	2
0	21818	39.8	2
0	21819	39.8	1
0	21854	39.85	1
0	21855	39.85	2
0	21856	39.85	2
0	21857	39.85	1
0	21870	39.9	1
0	21871	39.9	2
0	21872	39.9	2
0	21873	39.9	1
0	21875	39.9	1
0	21876	39.9	2
0	21877	39.9	2
0	21878	39.9	1
0	21899	39.95	1
0	21900	39.95	2
0	21901	39.95	2
0	21902	39.95	1
0	21919	40	1
0	21920	40	2
0	21921	40	2
0	21922	40	1
0	21924	40	1
0	21925	40	2
0	21926	40	2
0	21927	40	1
0	21948	40.05	1
0	21949	40.05	2
0	21950	40.05	2
0	21951	40.05	1
0	21971	40.1	1
0	21972	40.1	2
0	21973	40.1	2
0	21974	40.1	1
0	21976	40.1	1
0	21977	40.1	2
0	21978	40.1	2
0	21979	40.1	1
0	22004	40.15	1
0	22005	40.15	2
0	22006	40.15	2
0	22007	40.15	1
0	22034	40.2	1
0	22035	40.2	2
0	22036	40.2	2
0	22037	40.2	1
0	22039	40.2	1
0	22040	40.2	2
0	22041	40.2	2
0	22042	40.2	1
0	22073	40.25	1
0	22074	40.25	2
0	22075	40.25	2
0	22076	40.25	1
0	22089	40.3	1
0	22090	40.3	2
0	22091	40.3	2
0	22092	40.3	1
0	22094	40.3	1
0	22095	40.3	2
0	22096	40.3	2
0	22097	40.3	1
0	22144	40.35	1
0	22145	40.35	2
0	22146	40.35	2
0	22147	40.35	1
0	22160	40.4	1
0	22161	40.4	2
0	22162	40.4	2
0	22163	40.4	1
0	22165	40.4	1
0	22166	40.4	2
0	22167	40.4	2
0	22168	40.4	1
0	22189	40.45	1
0	22190	40.45	2
0	22191	40.45	2
0	22192	40.45	1
0	22205	40.5	1
0	22206	40.5	2
0	22207	40.5	2
0	22208	40.5	1
0	22210	40.5	1
0	22211	40.5	2
0	22212	40.5	2
0	22213	40.5	1
0	22234	40.55	1
0	22235	40.55	2
0	22236	40.55	2
0	22237	40.55	1
0	22250	40.6	1
0	22251	40.6	2
0	22252	40.6	2
0	22253	40.6	1
0	22255	40.6	1
0	22256	40.6	2
0	22257	40.6	2
0	22258	40.6	1
0	22289	40.65	1
0	22290	40.65	2
0	22291	40.65	2
0	22292	40.65	1
0	22305	40.7	1
0	22306	40.7	2
0	22307	40.7	2
0	22308	40.7	1
0	22310	40.7	1
0	22311	40.7	2
0	22312	40.7	2
0	22313	40.7	1
0	22348	40.75	1
0	22349	40.75	2
0	22350	40.75	2
0	22351	40.75	1
0	22378	40.8	1
0	22379	40.8	2
0	22380	40.8	2
0	22381	40.8	1
0	22383	40.8	1
0	22384	40.8	2
0	22385	40.8	2
0	22386	40.8	1
0	22407	40.85	1
0	22408	40.85	2
0	22409	40.85	2
0	22410	40.85	1
0	22437	40.9	1
0	22438	40.9	2
0	22439	40.9	2
0	22440	40.9	1
0	22442	40.9	1
0	22443	40.9	2
0	22444	40.9	2
0	22445	40.9	1
0	22466	40.95	1
0	22467	40.95	2
0	22468	40.95	2
0	22469	40.95	1
0	22482	41	1
0	22483	41	2
0	22484	41	2
0	22485	41	1
0	22487	41	1
0	22488	41	2
0	22489	41	2
0	22490	41	1
0	22511	41.05	1
0	22512	41.05	2
0	22513	41.05	2
0	22514	41.05	1
0	22531	41.1	1
0	22532	41.1	2
0	22533	41.1	2
0	22534	41.1	1
0	22536	41.1	1
0	22537	41.1	2
0	22538	41.1	2
0	22539	41.1	1
0	22564	41.15	1
0	22565	41.15	2
0	22566	41.15	2
0	22567	41.15	1
0	22622	41.2	1
0	22623	41.2	2
0	22624	41.2	2
0	22625	41.2	1
0	22627	41.2	1
0	22628	41.2	2
0	22629	41.2	2
0	22630	41.2	1
0	22659	41.25	1
0	22660	41.25	2
0	22661	41.25	2
0	22662	41.25	1
0	22689	41.3	1
0	22690	41.3	2
0	22691	41.3	2
0	22692	41.3	1
0	22694	41.3	1
0	22695	41.3	2
0	22696	41.3	2
0	22697	41.3	1
0	22721	41.35	1
0	22722	41.35	2
0	22723	41.35	2
0	22724	41.35	1
0	22737	41.4	1
0	22738	41.4	2
0	22739	41.4	2
0	22740	41.4	1
0	22742	41.4	1
0	22743	41.4	2
0	22744	41.4	2
0	22745	41.4	1
0	22795	41.45	1
0	22796	41.45	2
0	22797	41.45	2
0	22798	41.45	1
0	22811	41.5	1
0	22812	41.5	2
0	22813	41.5	2
0	22814	41.5	1
0	22816	41.5	1
0	22817	41.5	2
0	22818	41.5	2
0	22819	41.5	1
0	22840	41.55	1
0	22841	41.55	2
0	22842	41.55	2
0	22843	41.55	1
0	22866	41.6	1
0	22867	41.6	2
0	22868	41.6	2
0	22869	41.6	1
0	22871	41.6	1
0	22872	41.6	2
0	22873	41.6	2
0	22874	41.6	1
0	22895	41.65	1
0	22896	41.65	2
0	22897	41.65	2
0	22898	41.65	1
0	22911	41.7	1
0	22912	41.7	2
0	22913	41.7	2
0	22914	41.7	1
0	22916	41.7	1
0	22917	41.7	2
0	22918	41.7	2
0	22919	41.7	1
0	22940	41.75	1
0	22941	41.75	2
0	22942	41.75	2
0	22943	41.75	1
0	22956	41.8	1
0	22957	41.8	2
0	22958	41.8	2
0	22959	41.8	1
0	22961	41.8	1
0	22962	41.8	2
0	22963	41.8	2
0	22964	41.8	1
0	22999	41.85	1
0	23000	41.85	2
0	23001	41.85	2
0	23002	41.85	1
0	23015	41.9	1
0	23016	41.9	2
0	23017	41.9	2
0	23018	41.9	1
0	23020	41.9	1
0	23021	41.9	2
0	23022	41.9	2
0	23023	41.9	1
0	23044	41.95	1
0	23045	41.95	2
0	23046	41.95	2
0	23047	41.95	1
0	23080	42	1
0	23081	42	2
0	23082	42	2
0	23083	42	1
0	23085	42	1
0	23086	42	2
0	23087	42	2
0	23088	42	1
0	23109	42.05	1
0	23110	42.05	2
0	23111	42.05	2
0	23112	42.05	1
0	23129	42.1	1
0	23130	42.1	2
0	23131	42.1	2
0	23132	42.1	1
0	23134	42.1	1
0	23135	42.1	2
0	23136	42.1	2
0	23137	42.1	1
0	23162	42.15	1
0	23163	42.15	2
0	23164	42.15	2
0	23165	42.15	1
0	23178	42.2	1
0	23179	42.2	2
0	23180	42.2	2
0	23181	42.2	1
0	23183	42.2	1
0	23184	42.2	2
0	23185	42.2	2
0	23186	42.2	1
0	23207	42.25	1
0	23208	42.25	2
0	23209	42.25	2
0	23210	42.25	1
0	23223	42.3	1
0	23224	42.3	2
0	23225	42.3	2
0	23226	42.3	1
0	23228	42.3	1
0	23229	42.3	2
0	23230	42.3	2
0	23231	42.3	1
0	23252	42.35	1
0	23253	42.35	2
0	23254	42.35	2
0	23255	42.35	1
0	23282	42.4	1
0	23283	42.4	2
0	23284	42.4	2
0	23285	42.4	1
0	23287	42.4	1
0	23288	42.4	2
0	23289	42.4	2
0	23290	42.4	1
0	23311	42.45	1
0	23312	42.45	2
0	23313	42.45	2
0	23314	42.45	1
0	23327	42.5	1
0	23328	42.5	2
0	23329	42.5	2
0	23330	42.5	1
0	23332	42.5	1
0	23333	42.5	2
0	23334	42.5	2
0	23335	42.5	1
0	23382	42.55	1
0	23383	42.55	2
0	23384	42.55	2
0	23385	42.55	1
0	23398	42.6	1
0	23399	42.6	2
0	23400	42.6	2
0	23401	42.6	1
0	23403	42.6	1
0	23404	42.6	2
0	23405	42.6	2
0	23406	42.6	1
0	23427	42.65	1
0	23428	42.65	2
0	23429	42.65	2
0	23430	42.65	1
0	23443	42.7	1
0	23444	42.7	2
0	23445	42.7	2
0	23446	42.7	1
0	23448	42.7	1
0	23449	42.7	2
0	23450	42.7	2
0	23451	42.7	1
0	23472	42.75	1
0	23473	42.75	2
0	23474	42.75	2
0	23475	42.75	1
0	23498	42.8	1
0	23499	42.8	2
0	23500	42.8	2
0	23501	42.8	1
0	23503	42.8	1
0	23504	42.8	2
0	23505	42.8	2
0	23506	42.8	1
0	23527	42.85	1
0	23528	42.85	2
0	23529	42.85	2
0	23530	42.85	1
0	23543	42.9	1
0	23544	42.9	2
0	23545	42.9	2
0	23546	42.9	1
0	23548	42.9	1
0	23549	42.9	2
0	23550	42.9	2
0	23551	42.9	1
0	23589	42.95	1
0	23590	42.95	2
0	23591	42.95	2
0	23592	42.95	1
0	23605	43	1
0	23606	43	2
0	23607	43	2
0	23608	43	1
0	23610	43	1
0	23611	43	2
0	23612	43	2
0	23613	43	1
0	23634	43.05	1
0	23635	43.05	2
0	23636	43.05	2
0	23637	43.05	1
0	23668	43.1	1
0	23669	43.1	2
0	23670	43.1	2
0	23671	43.1	1
0	23673	43.1	1
0	23674	43.1	2
0	23675	43.1	2
0	23676	43.1	1
0	23701	43.15	1
0	23702	43.15	2
0	23703	43.15	2
0	23704	43.15	1
0	23810	43.2	1
0	23811	43.2	2
0	23812	43.2	2
0	23813	43.2	1
0	23815	43.2	1
0	23816	43.2	2
0	23817	43.2	2
0	23818	43.2	1
0	23861	43.25	1
0	23862	43.25	2
0	23863	43.25	2
0	23864	43.25	1
0	23898	43.3	1
0	23899	43.3	2
0	23900	43.3	2
0	23901	43.3	1
0	23903	43.3	1
0	23904	43.3	2
0	23905	43.3	2
0	23906	43.3	1
0	23970	43.35	1
0	23971	43.35	2
0	23972	43.35	2
0	23973	43.35	1
0	23999	43.4	1
0	24000	43.4	2
0	24001	43.4	2
0	24002	43.4	1
0	24004	43.4	1
0	24005	43.4	2
0	24006	43.4	2
0	24007	43.4	1
0	24049	43.45	1
0	24050	43.45	2
0	24051	43.45	2
0	24052	43.45	1
0	24112	43.5	1
0	24113	43.5	2
0	24114	43.5	2
0	24115	43.5	1
0	24117	43.5	1
0	24118	43.5	2
0	24119	43.5	2
0	24120	43.5	1
0	24144	43.55	1
0	24145	43.55	2
0	24146	43.55	2
0	24147	43.55	1
0	24191	43.6	1
0	24192	43.6	2
0	24193	43.6	2
0	24194	43.6	1
0	24196	43.6	1
0	24197	43.6	2
0	24198	43.6	2
0	24199	43.6	1
0	24275	43.65	1
0	24276	43.65	2
0	24277	43.65	2
0	24278	43.65	1
0	24291	43.7	1
0	24292	43.7	2
0	24293	43.7	2
0	24294	43.7	1
0	24296	43.7	1
0	24297	43.7	2
0	24298	43.7	2
0	24299	43.7	1
0	24323	43.75	1
0	24324	43.75	2
0	24325	43.75	2
0	24326	43.75	1
0	24339	43.8	1
0	24340	43.8	2
0	24341	43.8	2
0	24342	43.8	1
0	24344	43.8	1
0	24345	43.8	2
0	24346	43.8	2
0	24347	43.8	1
0	24368	43.85	1
0	24369	43.85	2
0	24370	43.85	2
0	24371	43.85	1
0	24384	43.9	1
0	24385	43.9	2
0	24386	43.9	2
0	24387	43.9	1
0	24389	43.9	1
0	24390	43.9	2
0	24391	43.9	2
0	24392	43.9	1
0	24413	43.95	1
0	24414	43.95	2
0	24415	43.95	2
0	24416	43.95	1
0	24429	44	1
0	24430	44	2
[...]
2	19511	35.428453385287	11139
2	20885	38.128453385287	11280
2	20895	38.142293385287	11421
2	20921	38.156133385287	11562
2	21099	38.478748223005	11703
2	21109	38.492588233245	11844
2	21150	38.506428243437	11985
2	21804	39.778453385287	12126
2	22137	40.328453385287	12267
2	22605	41.178750643051	12408
2	22615	41.192590645427	12549
2	22654	41.206430647771	12690
2	22788	41.428453385287	12831
2	23375	42.528453385287	12972
2	23803	43.192590804973	13113
2	23842	43.206430803936	13254
2	23853	43.234110801777	13395
2	23880	43.261790799505	13536
2	23891	43.289470797118	13677
2	23932	43.303310795882	13818
2	23949	43.317150794617	13959
2	23956	43.330990793324	14100
2	23966	43.344830792001	14241
2	23989	43.35867079065	14382
2	24031	43.414030784951	14523
2	24041	43.427870783453	14664
2	24070	43.455550780367	14805
2	24085	43.46939077878	14946
2	24095	43.483230777163	15087
2	24105	43.497070775516	15228
2	24163	43.552430768626	15369
2	24173	43.566270766828	15510
2	24184	43.59395076314	15651
2	24225	43.60779076125	15792
2	24246	43.62163075933	15933
2	24253	43.628453385287	16074
2	24263	43.635470757378	16215
2	24556	44.178453385287	16356
2	25044	44.933490067198	16497
2	25068	44.961170061531	16638
2	25075	44.975010058689	16779
2	25085	44.988850055842	16920
2	25122	45.00269005299	17061
2	25132	45.016530050132	17202
2	25143	45.044210044403	17343
2	25173	45.058050041531	17484
2	25194	45.071890038654	17625
2	25249	45.113410029996	17766
2	25264	45.127250027101	17907
2	25274	45.141090024202	18048
2	25300	45.154930021299	18189
2	25307	45.168770018392	18330
2	25314	45.182610015482	18471
2	25375	45.251810000873	18612
2	25399	45.265649997941	18753
2	25409	45.278453385287	18894
2	25415	45.279489995006	19035
2	25429	45.293329992068	19176
2	25688	45.628749396839	19317
2	25717	45.656429382105	19458
2	25740	45.684109367199	19599
2	25777	45.711789352118	19740
2	25787	45.725629344513	19881
2	25797	45.739469336864	20022
2	25822	45.780989313653	20163
2	25832	45.794829305829	20304
2	25884	45.83634928209	20445
2	25910	45.850189274089	20586
2	25917	45.864029266043	20727
2	25924	45.877869257953	20868
2	26965	47.978453385287	21009
2	26975	47.992293385287	21150
2	27277	48.528453385287	21291
2	27758	49.233489452444	21432
2	27765	49.24732945311	21573
2	27788	49.261169453805	21714
2	27798	49.275009454529	21855
2	27838	49.302689456065	21996
2	27848	49.316529456877	22137
2	27855	49.330369457718	22278
2	27886	49.358049459489	22419
2	27911	49.38572946138	22560
2	27951	49.413409463391	22701
2	27979	49.454929466636	22842
2	27989	49.468769467779	22983
2	27999	49.482609468952	23124
2	28036	49.510289471392	23265
2	28063	49.57948947804	23406
2	28107	49.621009482409	23547
2	28114	49.634849483929	23688
2	28124	49.648689485482	23829
2	28220	49.708781035479	23970
2	28230	49.722621012535	24111
2	28240	49.73646098953	24252
2	28280	49.777980920151	24393
2	28290	49.791820896903	24534
2	28329	49.805660873594	24675
2	28337	49.833340826794	24816
2	28364	49.861020779749	24957
2	28371	49.874860756135	25098
2	28448	49.942579828988	25239
2	28474	49.956419805013	25380
2	28484	49.970259780977	25521
2	28494	49.984099756879	25662
2	28504	49.997939732721	25803
2	28546	50.039459529648	25944
2	28796	50.478734159986	26085
2	28803	50.492574072175	26226
2	28839	50.506413983833	26367
2	28849	50.520253894961	26508
2	29093	50.978453385287	26649
2	29103	50.992293385287	26790
2	29408	51.528453385287	26931
2	30070	52.478453385287	27072
2	30080	52.492293385287	27213
2	30119	52.506133385287	27354
2	30129	52.519973385287	27495
2	30139	52.533813385287	27636
2	30149	52.547653385287	27777
2	30177	52.561493385287	27918
2	30187	52.575333385287	28059
2	30197	52.589173385287	28200
2	30240	52.603013385287	28341
2	30265	52.616853385287	28482
2	30275	52.630693385287	28623
2	30285	52.644533385287	28764
2	30311	52.658373385287	28905
2	30322	52.686053385287	29046
2	30332	52.699893385287	29187
2	30368	52.713733385287	29328
2	30378	52.727573385287	29469
2	30388	52.741413385287	29610
2	30416	52.755253385287	29751
2	30434	52.769093385287	29892
2	30444	52.782933385287	30033
2	30454	52.796773385287	30174
2	30493	52.810613385287	30315
2	30503	52.824453385287	30456
2	30513	52.838293385287	30597
2	30539	52.852133385287	30738
2	30549	52.865973385287	30879
2	30559	52.879813385287	31020
2	30569	52.893653385287	31161
2	30608	52.907493385287	31302
2	30618	52.921333385287	31443
2	30628	52.935173385287	31584
2	30638	52.949013385287	31725
2	30673	52.962853385287	31866
2	30683	52.976693385287	32007
2	30693	52.990533385287	32148
2	30734	53.004373385287	32289
2	30744	53.018213385287	32430
2	30754	53.032053385287	32571
2	30764	53.045893385287	32712
2	30790	53.059733385287	32853
2	30800	53.073573385287	32994
2	30810	53.087413385287	33135
2	30859	53.101253385287	33276
2	30869	53.115093385287	33417
2	30879	53.128933385287	33558
2	30921	53.170453385287	33699
2	30931	53.184293385287	33840
2	30941	53.198133385287	33981
2	30980	53.211973385287	34122
2	30990	53.225813385287	34263
2	31000	53.239653385287	34404
2	31023	53.253493385287	34545
2	31033	53.267333385287	34686
2	31043	53.281173385287	34827
2	31053	53.295013385287	34968
2	31094	53.308853385287	35109
2	31112	53.322693385287	35250
2	31122	53.336533385287	35391
2	31148	53.350373385287	35532
2	31158	53.364213385287	35673
2	31168	53.378053385287	35814
2	31178	53.391893385287	35955
2	31217	53.405733385287	36096
2	31227	53.419573385287	36237
2	31237	53.433413385287	36378
2	31247	53.447253385287	36519
2	31273	53.461093385287	36660
2	31281	53.488773385287	36801
2	31320	53.502613385287	36942
2	31330	53.516453385287	37083
2	31340	53.530293385287	37224
2	32100	54.928453385287	37365
2	32110	54.942293385287	37506
2	32136	54.956133385287	37647
2	32146	54.969973385287	37788
2	32156	54.983813385287	37929
2	32166	54.997653385287	38070
2	32206	55.011493385287	38211
2	32216	55.025333385287	38352
2	32226	55.039173385287	38493
2	32484	55.478453385287	38634
2	32597	55.642443581539	38775
2	32623	55.656283355151	38916
2	32633	55.670123128693	39057
2	32643	55.683962902166	39198
2	32653	55.697802675571	39339
2	32692	55.71164244891	39480
2	32969	56.178585430625	39621
2	32976	56.192425202725	39762
2	33220	56.578453385287	39903
2	33531	57.128453385287	40044
2	34116	58.228453385287	40185
2	34191	58.328514935935	40326
2	34201	58.342354722697	40467
2	34227	58.356194509634	40608
2	34764	59.328453385287	40749
2	35336	60.428453385287	40890
2	35380	60.478452460721	41031
2	35387	60.492292280729	41172
2	35684	61.02843826816	41313
2	35973	61.578424844546	41454
2	36222	62.028453385287	41595
2	36303	62.128412186368	41736
2	36313	62.142252034771	41877
2	36559	62.578453385287	42018
2	36889	63.128453385287	42159
2	36960	63.228389107385	42300
2	37528	64.228453385287	42441
2	37599	64.328368853373	42582
2	38174	65.428351187537	42723
2	38690	66.378453385287	42864
2	38700	66.392293385287	43005
2	38814	66.528335853412	43146
2	39342	67.478453385287	43287
2	39456	67.628322599432	43428
2	39769	68.178316678854	43569
2	40343	69.278306117164	43710
2	40712	69.928453385287	43851
2	40722	69.942293385287	43992
2	40977	70.378297104753	44133
2	41354	71.028453385287	44274
2	41609	71.478289480123	44415
2	42001	72.128453385287	44556
2	42011	72.142293385287	44697
2	42039	72.156133385287	44838
2	42271	72.578283112377	44979
2	42576	73.128280367318	45120
2	43157	74.228275706813	45261
2	43201	74.278453385287	45402
2	43211	74.292293385287	45543
2	43809	75.328272112204	45684
2	44164	75.928453385287	45825
2	44451	76.42826956652	45966
2	44493	76.478453385287	46107
2	45089	77.528268094584	46248
2	45131	77.578453385287	46389
2	45461	78.128453385287	46530
2	45740	78.628267774638	46671
2	46057	79.178268090511	46812
2	46112	79.228453385287	46953
2	46695	80.278269246901	47094
2	46749	80.328453385287	47235
2	47323	81.378269246901	47376
2	47377	81.428453385287	47517
2	47950	82.478269246901	47658
2	48004	82.528453385287	47799
2	48305	83.078453385287	47940
2	48587	83.578269246901	48081
2	48886	84.128269246901	48222
2	49477	85.228269246901	48363
2	49483	85.228453385287	48504
2	49497	85.242293385287	48645
2	49523	85.256133385287	48786
2	50121	86.328269246901	48927
2	50127	86.328453385287	49068
2	50752	87.428269246901	49209
2	50758	87.428453385287	49350
2	51380	88.528269246901	49491
2	51386	88.528453385287	49632
2	52004	89.628269246901	49773
2	52010	89.628453385287	49914
2	52302	90.178269246901	50055
2	52848	91.228453385287	50196
2	52858	91.242293385287	50337
2	52900	91.278269246901	50478
2	53489	92.328453385287	50619
2	53531	92.378269246901	50760
2	54117	93.428453385287	50901
2	54159	93.478269246901	51042
2	54745	94.528453385287	51183
2	54787	94.578269246901	51324
2	55112	95.128269246901	51465
2	55382	95.628453385287	51606
2	55694	96.178453385287	51747
2	55748	96.228269246901	51888
2	56325	97.278453385287	52029
2	56379	97.328269246901	52170
2	56956	98.428269246901	52311
2	57372	99.178453385287	52452
2	57379	99.192293385287	52593
2	57565	99.528269246901	52734
2	57707	99.728453385287	52875
3	2935	5.528453385287	141
3	2946	5.542293385287	282
3	2956	5.546933385287	423
3	2982	5.556133385287	564
3	2992	5.560773385287	705
3	3002	5.569973385287	846
3	3012	5.574613385287	987
3	3022	5.583813385287	1128
3	3032	5.588453385287	1269
3	3042	5.597653385287	1410
3	3076	5.602293385287	1551
3	3338	6.083093385287	1692
3	3652	6.628453385287	1833
3	3662	6.633093385287	1974
3	3672	6.642293385287	2115
3	3968	7.178453385287	2256
3	4800	8.828453385287	2397
3	4871	8.928453385287	2538
3	4881	8.942293385287	2679
3	5184	9.478453385287	2820
3	5437	9.928453385287	2961
3	5745	10.478453385287	3102
3	5814	10.578453385287	3243
3	6132	11.128453385287	3384
3	6687	12.228453385287	3525
3	6901	12.628453385287	3666
3	6911	12.642293385287	3807
3	7312	13.328453385287	3948
3	7521	13.728453385287	4089
3	7620	13.878453385287	4230
3	7829	14.278453385287	4371
3	8375	15.378453385287	4512
3	8446	15.478453385287	4653
3	8456	15.492293385287	4794
3	9004	16.478453385287	4935
3	9387	17.128453385287	5076
3	9397	17.142293385287	5217
3	10094	18.628453385287	5358
3	10104	18.642293385287	5499
3	10327	19.028453385287	5640
3	10422	19.178453385287	5781
3	10432	19.192293385287	5922
3	10658	19.578453385287	6063
3	10977	20.128453385287	6204
3	11059	20.278453385287	6345
3	11285	20.678453385287	6486
3	11651	21.378453385287	6627
3	12405	22.828453385287	6768
3	12415	22.842293385287	6909
3	12527	23.028453385287	7050
3	12734	23.378453385287	7191
3	12846	23.578453385287	7332
3	13164	24.128453385287	7473
3	13363	24.478453385287	7614
3	13930	25.578453385287	7755
3	14220	26.128453385287	7896
3	14597	26.828508189914	8037
3	14607	26.84234840993	8178
3	14841	27.228453385287	8319
3	14928	27.378526267381	8460
3	14938	27.39236649468	8601
3	15518	28.478563865936	8742
3	16010	29.378453385287	8883
3	16020	29.392293385287	9024
3	16598	30.478453385287	9165
3	16697	30.628637986041	9306
3	16704	30.642478210431	9447
3	16938	31.028453385287	9588
3	17035	31.178655729665	9729
3	17266	31.578453385287	9870
3	17366	31.728672449965	10011
3	17624	32.128453385287	10152
3	18253	33.228453385287	10293
3	18833	34.328453385287	10434
3	19071	34.72873634424	10575
3	19081	34.74257642757	10716
3	19401	35.278740505224	10857
3	19411	35.292580528164	10998
3	19511	35.428453385287	11139
3	20885	38.128453385287	11280
3	20895	38.142293385287	11421
3	20921	38.156133385287	11562
3	21099	38.478748223005	11703
3	21109	38.492588233245	11844
3	21150	38.506428243437	11985
3	21804	39.778453385287	12126
3	22137	40.328453385287	12267
3	22605	41.178750643051	12408
3	22615	41.192590645427	12549
3	22654	41.206430647771	12690
3	22788	41.428453385287	12831
3	23375	42.528453385287	12972
3	23803	43.192590804973	13113
3	23842	43.206430803936	13254
3	23853	43.234110801777	13395
3	23880	43.261790799505	13536
3	23891	43.289470797118	13677
3	23932	43.303310795882	13818
3	23949	43.317150794617	13959
3	23956	43.330990793324	14100
3	23966	43.344830792001	14241
3	23989	43.35867079065	14382
3	24031	43.414030784951	14523
3	24041	43.427870783453	14664
3	24070	43.455550780367	14805
3	24085	43.46939077878	14946
3	24095	43.483230777163	15087
3	24105	43.497070775516	15228
3	24163	43.552430768626	15369
3	24173	43.566270766828	15510
3	24184	43.59395076314	15651
3	24225	43.60779076125	15792
3	24246	43.62163075933	15933
3	24253	43.628453385287	16074
3	24263	43.635470757378	16215
3	24556	44.178453385287	16356
3	25044	44.933490067198	16497
3	25068	44.961170061531	16638
3	25075	44.975010058689	16779
3	25085	44.988850055842	16920
3	25122	45.00269005299	17061
3	25132	45.016530050132	17202
3	25143	45.044210044403	17343
3	25173	45.058050041531	17484
3	25194	45.071890038654	17625
3	25249	45.113410029996	17766
3	25264	45.127250027101	17907
3	25274	45.141090024202	18048
3	25300	45.154930021299	18189
3	25307	45.168770018392	18330
3	25314	45.182610015482	18471
3	25375	45.251810000873	18612
3	25399	45.265649997941	18753
3	25409	45.278453385287	18894
3	25415	45.279489995006	19035
3	25429	45.293329992068	19176
3	25688	45.628749396839	19317
3	25717	45.656429382105	19458
3	25740	45.684109367199	19599
3	25777	45.711789352118	19740
3	25787	45.725629344513	19881
3	25797	45.739469336864	20022
3	25822	45.780989313653	20163
3	25832	45.794829305829	20304
3	25884	45.83634928209	20445
3	25910	45.850189274089	20586
3	25917	45.864029266043	20727
3	25924	45.877869257953	20868
3	26965	47.978453385287	21009
3	26975	47.992293385287	21150
3	27277	48.528453385287	21291
3	27758	49.233489452444	21432
3	27765	49.24732945311	21573
3	27788	49.261169453805	21714
3	27798	49.275009454529	21855
3	27838	49.302689456065	21996
3	27848	49.316529456877	22137
3	27855	49.330369457718	22278
3	27886	49.358049459489	22419
3	27911	49.38572946138	22560
3	27951	49.413409463391	22701
3	27979	49.454929466636	22842
3	27989	49.468769467779	22983
3	27999	49.482609468952	23124
3	28036	49.510289471392	23265
3	28063	49.57948947804	23406
3	28107	49.621009482409	23547
3	28114	49.634849483929	23688
3	28124	49.648689485482	23829
3	28220	49.708781035479	23970
3	28230	49.722621012535	24111
3	28240	49.73646098953	24252
3	28280	49.777980920151	24393
3	28290	49.791820896903	24534
3	28329	49.805660873594	24675
3	28337	49.833340826794	24816
3	28364	49.861020779749	24957
3	28371	49.874860756135	25098
3	28448	49.942579828988	25239
3	28474	49.956419805013	25380
3	28484	49.970259780977	25521
3	28494	49.984099756879	25662
3	28504	49.997939732721	25803
3	28546	50.039459529648	25944
3	28796	50.478734159986	26085
3	28803	50.492574072175	26226
3	28839	50.506413983833	26367
3	28849	50.520253894961	26508
3	29093	50.978453385287	26649
3	29103	50.992293385287	26790
3	29408	51.528453385287	26931
3	30070	52.478453385287	27072
3	30080	52.492293385287	27213
3	30119	52.506133385287	27354
3	30129	52.519973385287	27495
3	30139	52.533813385287	27636
3	30149	52.547653385287	27777
3	30177	52.561493385287	27918
3	30187	52.575333385287	28059
3	30197	52.589173385287	28200
3	30240	52.603013385287	28341
3	30265	52.616853385287	28482
3	30275	52.630693385287	28623
3	30285	52.644533385287	28764
3	30311	52.658373385287	28905
3	30322	52.686053385287	29046
3	30332	52.699893385287	29187
3	30368	52.713733385287	29328
3	30378	52.727573385287	29469
3	30388	52.741413385287	29610
3	30416	52.755253385287	29751
3	30434	52.769093385287	29892
3	30444	52.782933385287	30033
3	30454	52.796773385287	30174
3	30493	52.810613385287	30315
3	30503	52.824453385287	30456
3	30513	52.838293385287	30597
3	30539	52.852133385287	30738
3	30549	52.865973385287	30879
3	30559	52.879813385287	31020
3	30569	52.893653385287	31161
3	30608	52.907493385287	31302
3	30618	52.921333385287	31443
3	30628	52.935173385287	31584
3	30638	52.949013385287	31725
3	30673	52.962853385287	31866
3	30683	52.976693385287	32007
3	30693	52.990533385287	32148
3	30734	53.004373385287	32289
3	30744	53.018213385287	32430
3	30754	53.032053385287	32571
3	30764	53.045893385287	32712
3	30790	53.059733385287	32853
3	30800	53.073573385287	32994
3	30810	53.087413385287	33135
3	30859	53.101253385287	33276
3	30869	53.115093385287	33417
3	30879	53.128933385287	33558
3	30921	53.170453385287	33699
3	30931	53.184293385287	33840
3	30941	53.198133385287	33981
3	30980	53.211973385287	34122
3	30990	53.225813385287	34263
3	31000	53.239653385287	34404
3	31023	53.253493385287	34545
3	31033	53.267333385287	34686
3	31043	53.281173385287	34827
3	31053	53.295013385287	34968
3	31094	53.308853385287	35109
3	31112	53.322693385287	35250
3	31122	53.336533385287	35391
3	31148	53.350373385287	35532
3	31158	53.364213385287	35673
3	31168	53.378053385287	35814
3	31178	53.391893385287	35955
3	31217	53.405733385287	36096
3	31227	53.419573385287	36237
3	31237	53.433413385287	36378
3	31247	53.447253385287	36519
3	31273	53.461093385287	36660
3	31281	53.488773385287	36801
3	31320	53.502613385287	36942
3	31330	53.516453385287	37083
3	31340	53.530293385287	37224
3	32100	54.928453385287	37365
3	32110	54.942293385287	37506
3	32136	54.956133385287	37647
3	32146	54.969973385287	37788
3	32156	54.983813385287	37929
3	32166	54.997653385287	38070
3	32206	55.011493385287	38211
3	32216	55.025333385287	38352
3	32226	55.039173385287	38493
3	32484	55.478453385287	38634
3	32597	55.642443581539	38775
3	32623	55.656283355151	38916
3	32633	55.670123128693	39057
3	32643	55.683962902166	39198
3	32653	55.697802675571	39339
3	32692	55.71164244891	39480
3	32969	56.178585430625	39621
3	32976	56.192425202725	39762
3	33220	56.578453385287	39903
3	33531	57.128453385287	40044
3	34116	58.228453385287	40185
3	34191	58.328514935935	40326
3	34201	58.342354722697	40467
3	34227	58.356194509634	40608
3	34764	59.328453385287	40749
3	35336	60.428453385287	40890
3	35380	60.478452460721	41031
3	35387	60.492292280729	41172
3	35684	61.02843826816	41313
3	35973	61.578424844546	41454
3	36222	62.028453385287	41595
3	36303	62.128412186368	41736
3	36313	62.142252034771	41877
3	36559	62.578453385287	42018
3	36889	63.128453385287	42159
3	36960	63.228389107385	42300
3	37528	64.228453385287	42441
3	37599	64.328368853373	42582
3	38174	65.428351187537	42723
3	38690	66.378453385287	42864
3	38700	66.392293385287	43005
3	38814	66.528335853412	43146
3	39342	67.478453385287	43287
3	39456	67.628322599432	43428
3	39769	68.178316678854	43569
3	40343	69.278306117164	43710
3	40712	69.928453385287	43851
3	40722	69.942293385287	43992
3	40977	70.378297104753	44133
3	41354	71.028453385287	44274
3	41609	71.478289480123	44415
3	42001	72.128453385287	44556
3	42011	72.142293385287	44697
3	42039	72.156133385287	44838
3	42271	72.578283112377	44979
3	42576	73.128280367318	45120
3	43157	74.228275706813	45261
3	43201	74.278453385287	45402
3	43211	74.292293385287	45543
3	43809	75.328272112204	45684
3	44164	75.928453385287	45825
3	44451	76.42826956652	45966
3	44493	76.478453385287	46107
3	45089	77.528268094584	46248
3	45131	77.578453385287	46389
3	45461	78.128453385287	46530
3	45740	78.628267774638	46671
3	46057	79.178268090511	46812
3	46112	79.228453385287	46953
3	46695	80.278269246901	47094
3	46749	80.328453385287	47235
3	47323	81.378269246901	47376
3	47377	81.428453385287	47517
3	47950	82.478269246901	47658
3	48004	82.528453385287	47799
3	48305	83.078453385287	47940
3	48587	83.578269246901	48081
3	48886	84.128269246901	48222
3	49477	85.228269246901	48363
3	49483	85.228453385287	48504
3	49497	85.242293385287	48645
3	49523	85.256133385287	48786
3	50121	86.328269246901	48927
3	50127	86.328453385287	49068
3	50752	87.428269246901	49209
3	50758	87.428453385287	49350
3	51380	88.528269246901	49491
3	51386	88.528453385287	49632
3	52004	89.628269246901	49773
3	52010	89.628453385287	49914
3	52302	90.178269246901	50055
3	52848	91.228453385287	50196
3	52858	91.242293385287	50337
3	52900	91.278269246901	50478
3	53489	92.328453385287	50619
3	53531	92.378269246901	50760
3	54117	93.428453385287	50901
3	54159	93.478269246901	51042
3	54745	94.528453385287	51183
3	54787	94.578269246901	51324
3	55112	95.128269246901	51465
3	55382	95.628453385287	51606
3	55694	96.178453385287	51747
3	55748	96.228269246901	51888
3	56325	97.278453385287	52029
3	56379	97.328269246901	52170
3	56956	98.428269246901	52311
3	57372	99.178453385287	52452
3	57379	99.192293385287	52593
3	57565	99.528269246901	52734
3	57707	99.728453385287	52875

