version 2
run Moves5-0-20190729-15:28:56-11104
attr configname Moves5
attr datetime 20190729-15:28:56
attr experiment Moves5
attr inifile SimV2.ini
attr iterationvars ""
attr iterationvarsf ""
attr measurement ""
attr network NetworkTormV2
attr processid 11104
attr repetition 0
attr replication #0
attr resultdir results
attr runnumber 0
attr seedset 0
param **.mobility.traceFile "\"paths/Moves5.movements\""
param **.numNodes 2
param **.application.usedRNG 1
param **.application.dataGenerationInterval 1s
param **.application.dataSizeInBytes 10
param **.application.ttl 999999s
param **application.destinationAddr "\"Wf:00:00:00:00:02\""
param **application.destinationBTAddr "\"Bt:00:00:00:00:02\""
param **application.nodesThatGen true
param **application.nodesGenMsg "\"0\""
param **.routingLayer "\"EpidemicRoutingLayer\""
param **.routing.maximumCacheSize 500byte
param **.routing.maximumHopCount 25
param **.routing.useTTL false
param **.neighboring.antiEntropyInterval 1s
param **.neighboring.maximumRandomBackoffDuration 1s
param **neighboring.usedRNG 2
param **.neighboring.GWAddr "\"02:00:00:00:00:03\""
param **.neighboring.sendWifiFirst true
param **.storage.maximumCacheSize 500byte
param **.wirelessIfc.wirelessRange 15m
param **.wirelessIfc.neighbourScanInterval 100ms
param **.wirelessIfc.bandwidthBitRate 100000bps
param **.wirelessIfc.wirelessHeaderSize 32byte
param **.wirelessIfc.minSSI -90
param **.bluetoothIfc.wirelessRange 15m
param **.bluetoothIfc.neighbourScanInterval 100ms
param **.bluetoothIfc.bandwidthBitRate 100000bps
param **.bluetoothIfc.wirelessHeaderSize 16byte
param **.bluetoothIfc.minSSI -90
param **.mobilityType "\"BonnMotionMobility\""
param **.mobility.traceFile "\"paths/Moves2.movements\""
param **.mobility.nodeId -1

vector 0 NetworkTormV2 nonLikedDataBytesReceivableByAllNodesSum:vector ETV
attr source sum(nonLikedDataBytesReceivableByAllNodes)
vector 1 NetworkTormV2 deliveryRatio:vector ETV
attr source sum(totalDataBytesReceived)/sum(totalDataBytesReceivableByAllNodes)
vector 2 NetworkTormV2 neighbourhoodSize:vector ETV
attr source neighbourhoodSize
vector 3 NetworkTormV2 dataBytesReceivedSum:vector ETV
attr source sum(dataBytesReceived)
vector 4 NetworkTormV2 totalBytesReceivedSum:vector ETV
attr source sum(totalBytesReceived)
vector 5 NetworkTormV2 nonLikedDataBytesReceivedSum:vector ETV
attr source sum(nonLikedDataBytesReceived)
vector 6 NetworkTormV2 dataDelay:vector ETV
attr source dataDelay
vector 7 NetworkTormV2 duplicateDataBytesReceivedSum:vector ETV
attr source sum(duplicateDataBytesReceived)
vector 8 NetworkTormV2 likedDataBytesReceivableByAllNodesSum:vector ETV
attr source sum(likedDataBytesReceivableByAllNodes)
vector 9 NetworkTormV2 likedDataBytesReceivedSum:vector ETV
attr source sum(likedDataBytesReceived)
0	7	0.1	20
0	139	1.1	40
0	323	2.1	60
0	546	3.1	80
0	1070	5.1	100
0	1198	7.1	120
0	1302	9.1	140
0	1607	10.1	160
0	2028	11.1	180
0	2475	12.1	200
0	2912	13.1	220
0	3070	14.1	240
1	7	0.1	-nan
1	139	1.1	-nan
1	202	1.21456	0.25
1	213	1.22	0.5
1	323	2.1	0.33333333333333
1	441	2.32544	0.5
1	546	3.1	0.375
1	695	3.43088	0.5
1	795	4.1	0.4
1	975	4.53632	0.5
1	1070	5.1	0.41666666666667
1	1146	6.1	0.35714285714286
1	1198	7.1	0.3125
1	1250	8.1	0.27777777777778
1	1302	9.1	0.25
1	1486	9.74176	0.3
1	1501	9.7472	0.35
1	1516	9.75264	0.4
1	1531	9.75808	0.45
1	1542	9.76352	0.5
1	1607	10.1	0.45454545454545
1	1926	10.86896	0.5
1	2028	11.1	0.45833333333333
1	2377	11.9744	0.5
1	2475	12.1	0.46153846153846
1	2854	13.07984	0.5
1	2912	13.1	0.46428571428571
1	3070	14.1	0.43333333333333
1	3361	14.18528	0.46666666666667
1	3376	14.19072	0.5
2	8	0.1	1
2	9	0.1	1
2	10	0.1	1
2	11	0.1	1
2	22	0.2	1
2	23	0.2	1
2	24	0.2	1
2	25	0.2	1
2	35	0.3	1
2	36	0.3	1
2	37	0.3	1
2	38	0.3	1
2	48	0.4	1
2	49	0.4	1
2	50	0.4	1
2	51	0.4	1
2	61	0.5	1
2	62	0.5	1
2	63	0.5	1
2	64	0.5	1
2	74	0.6	1
2	75	0.6	1
2	76	0.6	1
2	77	0.6	1
2	87	0.7	1
2	88	0.7	1
2	89	0.7	1
2	90	0.7	1
2	100	0.8	1
2	101	0.8	1
2	102	0.8	1
2	103	0.8	1
2	113	0.9	1
2	114	0.9	1
2	115	0.9	1
2	116	0.9	1
2	126	1	1
2	127	1	1
2	128	1	1
2	129	1	1
2	140	1.1	1
2	141	1.1	1
2	142	1.1	1
2	143	1.1	1
2	154	1.2	1
2	155	1.2	1
2	156	1.2	1
2	157	1.2	1
2	219	1.3	1
2	220	1.3	1
2	221	1.3	1
2	222	1.3	1
2	232	1.4	1
2	233	1.4	1
2	234	1.4	1
2	235	1.4	1
2	245	1.5	1
2	246	1.5	1
2	247	1.5	1
2	248	1.5	1
2	258	1.6	1
2	259	1.6	1
2	260	1.6	1
2	261	1.6	1
2	271	1.7	1
2	272	1.7	1
2	273	1.7	1
2	274	1.7	1
2	284	1.8	1
2	285	1.8	1
2	286	1.8	1
2	287	1.8	1
2	297	1.9	1
2	298	1.9	1
2	299	1.9	1
2	300	1.9	1
2	310	2	1
2	311	2	1
2	312	2	1
2	313	2	1
2	324	2.1	1
2	325	2.1	1
2	326	2.1	1
2	327	2.1	1
2	338	2.2	1
2	339	2.2	1
2	340	2.2	1
2	341	2.2	1
2	351	2.3	1
2	352	2.3	1
2	353	2.3	1
2	354	2.3	1
2	455	2.4	1
2	456	2.4	1
2	457	2.4	1
2	458	2.4	1
2	468	2.5	1
2	469	2.5	1
2	470	2.5	1
2	471	2.5	1
2	481	2.6	1
2	482	2.6	1
2	483	2.6	1
2	484	2.6	1
2	494	2.7	1
2	495	2.7	1
2	496	2.7	1
2	497	2.7	1
2	507	2.8	1
2	508	2.8	1
2	509	2.8	1
2	510	2.8	1
2	520	2.9	1
2	521	2.9	1
2	522	2.9	1
2	523	2.9	1
2	533	3	1
2	534	3	1
2	535	3	1
2	536	3	1
2	547	3.1	1
2	548	3.1	1
2	549	3.1	1
2	550	3.1	1
2	561	3.2	1
2	562	3.2	1
2	563	3.2	1
2	564	3.2	1
2	574	3.3	1
2	575	3.3	1
2	576	3.3	1
2	577	3.3	1
2	587	3.4	1
2	588	3.4	1
2	589	3.4	1
2	590	3.4	1
2	717	3.5	1
2	718	3.5	1
2	719	3.5	1
2	720	3.5	1
2	730	3.6	1
2	731	3.6	1
2	732	3.6	1
2	733	3.6	1
2	743	3.7	1
2	744	3.7	1
2	745	3.7	1
2	746	3.7	1
2	756	3.8	1
2	757	3.8	1
2	758	3.8	1
2	759	3.8	1
2	769	3.9	1
2	770	3.9	1
2	771	3.9	1
2	772	3.9	1
2	782	4	1
2	783	4	1
2	784	4	1
2	785	4	1
2	796	4.1	1
2	797	4.1	1
2	798	4.1	1
2	799	4.1	1
2	810	4.2	1
2	811	4.2	1
2	812	4.2	1
2	813	4.2	1
2	823	4.3	1
2	824	4.3	1
2	825	4.3	1
2	826	4.3	1
2	836	4.4	1
2	837	4.4	1
2	838	4.4	1
2	839	4.4	1
2	849	4.5	1
2	850	4.5	1
2	851	4.5	1
2	852	4.5	1
2	1005	4.6	1
2	1006	4.6	1
2	1007	4.6	1
2	1008	4.6	1
2	1018	4.7	1
2	1019	4.7	1
2	1020	4.7	1
2	1021	4.7	1
2	1031	4.8	1
2	1032	4.8	1
2	1033	4.8	1
2	1034	4.8	1
2	1044	4.9	1
2	1045	4.9	1
2	1046	4.9	1
2	1047	4.9	1
2	1057	5	1
2	1058	5	1
2	1059	5	1
2	1060	5	1
2	1071	5.1	1
2	1072	5.1	1
2	1073	5.1	1
2	1074	5.1	1
2	1085	5.2	1
2	1086	5.2	1
2	1087	5.2	1
2	1088	5.2	1
2	1098	5.3	1
2	1099	5.3	1
2	1100	5.3	1
2	1101	5.3	1
2	1111	5.4	0
2	1112	5.4	0
2	1113	5.4	0
2	1114	5.4	0
2	1116	5.5	0
2	1117	5.5	0
2	1118	5.5	0
2	1119	5.5	0
2	1121	5.6	0
2	1122	5.6	0
2	1123	5.6	0
2	1124	5.6	0
2	1126	5.7	0
2	1127	5.7	0
2	1128	5.7	0
2	1129	5.7	0
2	1131	5.8	0
2	1132	5.8	0
2	1133	5.8	0
2	1134	5.8	0
2	1136	5.9	0
2	1137	5.9	0
2	1138	5.9	0
2	1139	5.9	0
2	1141	6	0
2	1142	6	0
2	1143	6	0
2	1144	6	0
2	1147	6.1	0
2	1148	6.1	0
2	1149	6.1	0
2	1150	6.1	0
2	1153	6.2	0
2	1154	6.2	0
2	1155	6.2	0
2	1156	6.2	0
2	1158	6.3	0
2	1159	6.3	0
2	1160	6.3	0
2	1161	6.3	0
2	1163	6.4	0
2	1164	6.4	0
2	1165	6.4	0
2	1166	6.4	0
2	1168	6.5	0
2	1169	6.5	0
2	1170	6.5	0
2	1171	6.5	0
2	1173	6.6	0
2	1174	6.6	0
2	1175	6.6	0
2	1176	6.6	0
2	1178	6.7	0
2	1179	6.7	0
2	1180	6.7	0
2	1181	6.7	0
2	1183	6.8	0
2	1184	6.8	0
2	1185	6.8	0
2	1186	6.8	0
2	1188	6.9	0
2	1189	6.9	0
2	1190	6.9	0
2	1191	6.9	0
2	1193	7	0
2	1194	7	0
2	1195	7	0
2	1196	7	0
2	1199	7.1	0
2	1200	7.1	0
2	1201	7.1	0
2	1202	7.1	0
2	1205	7.2	0
2	1206	7.2	0
2	1207	7.2	0
2	1208	7.2	0
2	1210	7.3	0
2	1211	7.3	0
2	1212	7.3	0
2	1213	7.3	0
2	1215	7.4	0
2	1216	7.4	0
2	1217	7.4	0
2	1218	7.4	0
2	1220	7.5	0
2	1221	7.5	0
2	1222	7.5	0
2	1223	7.5	0
2	1225	7.6	0
2	1226	7.6	0
2	1227	7.6	0
2	1228	7.6	0
2	1230	7.7	0
2	1231	7.7	0
2	1232	7.7	0
2	1233	7.7	0
2	1235	7.8	0
2	1236	7.8	0
2	1237	7.8	0
2	1238	7.8	0
2	1240	7.9	0
2	1241	7.9	0
2	1242	7.9	0
2	1243	7.9	0
2	1245	8	0
2	1246	8	0
2	1247	8	0
2	1248	8	0
2	1251	8.1	0
2	1252	8.1	0
2	1253	8.1	0
2	1254	8.1	0
2	1257	8.2	0
2	1258	8.2	0
2	1259	8.2	0
2	1260	8.2	0
2	1262	8.3	0
2	1263	8.3	0
2	1264	8.3	0
2	1265	8.3	0
2	1267	8.4	0
2	1268	8.4	0
2	1269	8.4	0
2	1270	8.4	0
2	1272	8.5	0
2	1273	8.5	0
2	1274	8.5	0
2	1275	8.5	0
2	1277	8.6	0
2	1278	8.6	0
2	1279	8.6	0
2	1280	8.6	0
2	1282	8.7	0
2	1283	8.7	0
2	1284	8.7	0
2	1285	8.7	0
2	1287	8.8	0
2	1288	8.8	0
2	1289	8.8	0
2	1290	8.8	0
2	1292	8.9	0
2	1293	8.9	0
2	1294	8.9	0
2	1295	8.9	0
2	1297	9	0
2	1298	9	0
2	1299	9	0
2	1300	9	0
2	1303	9.1	0
2	1304	9.1	0
2	1305	9.1	0
2	1306	9.1	0
2	1309	9.2	0
2	1310	9.2	0
2	1311	9.2	0
2	1312	9.2	0
2	1314	9.3	0
2	1315	9.3	0
2	1316	9.3	0
2	1317	9.3	0
2	1319	9.4	0
2	1320	9.4	0
2	1321	9.4	0
2	1322	9.4	0
2	1324	9.5	0
2	1325	9.5	0
2	1326	9.5	0
2	1327	9.5	0
2	1329	9.6	0
2	1330	9.6	0
2	1331	9.6	0
2	1332	9.6	0
2	1334	9.7	1
2	1335	9.7	1
2	1336	9.7	1
2	1337	9.7	1
2	1568	9.8	1
2	1569	9.8	1
2	1570	9.8	1
2	1571	9.8	1
2	1581	9.9	1
2	1582	9.9	1
2	1583	9.9	1
2	1584	9.9	1
2	1594	10	1
2	1595	10	1
2	1596	10	1
2	1597	10	1
2	1608	10.1	1
2	1609	10.1	1
2	1610	10.1	1
2	1611	10.1	1
2	1621	10.2	1
2	1622	10.2	1
2	1623	10.2	1
2	1624	10.2	1
2	1633	10.3	1
2	1634	10.3	1
2	1635	10.3	1
2	1636	10.3	1
2	1645	10.4	1
2	1646	10.4	1
2	1647	10.4	1
2	1648	10.4	1
2	1657	10.5	1
2	1658	10.5	1
2	1659	10.5	1
2	1660	10.5	1
2	1669	10.6	1
2	1670	10.6	1
2	1671	10.6	1
2	1672	10.6	1
2	1681	10.7	1
2	1682	10.7	1
2	1683	10.7	1
2	1684	10.7	1
2	1693	10.8	1
2	1694	10.8	1
2	1695	10.8	1
2	1696	10.8	1
2	2004	10.9	1
2	2005	10.9	1
2	2006	10.9	1
2	2007	10.9	1
2	2016	11	1
2	2017	11	1
2	2018	11	1
2	2019	11	1
2	2029	11.1	1
2	2030	11.1	1
2	2031	11.1	1
2	2032	11.1	1
2	2042	11.2	1
2	2043	11.2	1
2	2044	11.2	1
2	2045	11.2	1
2	2054	11.3	1
2	2055	11.3	1
2	2056	11.3	1
2	2057	11.3	1
2	2066	11.4	1
2	2067	11.4	1
2	2068	11.4	1
2	2069	11.4	1
2	2078	11.5	1
2	2079	11.5	1
2	2080	11.5	1
2	2081	11.5	1
2	2090	11.6	1
2	2091	11.6	1
2	2092	11.6	1
2	2093	11.6	1
2	2102	11.7	1
2	2103	11.7	1
2	2104	11.7	1
2	2105	11.7	1
2	2114	11.8	1
2	2115	11.8	1
2	2116	11.8	1
2	2117	11.8	1
2	2126	11.9	1
2	2127	11.9	1
2	2128	11.9	1
2	2129	11.9	1
2	2455	12	1
2	2456	12	1
2	2457	12	1
2	2458	12	1
2	2476	12.1	1
2	2477	12.1	1
2	2478	12.1	1
2	2479	12.1	1
2	2489	12.2	1
2	2490	12.2	1
2	2491	12.2	1
2	2492	12.2	1
2	2501	12.3	1
2	2502	12.3	1
2	2503	12.3	1
2	2504	12.3	1
2	2513	12.4	1
2	2514	12.4	1
2	2515	12.4	1
2	2516	12.4	1
2	2525	12.5	1
2	2526	12.5	1
2	2527	12.5	1
2	2528	12.5	1
2	2537	12.6	1
2	2538	12.6	1
2	2539	12.6	1
2	2540	12.6	1
2	2549	12.7	1
2	2550	12.7	1
2	2551	12.7	1
2	2552	12.7	1
2	2561	12.8	1
2	2562	12.8	1
2	2563	12.8	1
2	2564	12.8	1
2	2573	12.9	1
2	2574	12.9	1
2	2575	12.9	1
2	2576	12.9	1
2	2585	13	1
2	2586	13	1
2	2587	13	1
2	2588	13	1
2	2913	13.1	1
2	2914	13.1	1
2	2915	13.1	1
2	2916	13.1	1
2	2962	13.2	1
2	2963	13.2	1
2	2964	13.2	1
2	2965	13.2	1
2	2974	13.3	1
2	2975	13.3	1
2	2976	13.3	1
2	2977	13.3	1
2	2986	13.4	1
2	2987	13.4	1
2	2988	13.4	1
2	2989	13.4	1
2	2998	13.5	1
2	2999	13.5	1
2	3000	13.5	1
2	3001	13.5	1
2	3010	13.6	1
2	3011	13.6	1
2	3012	13.6	1
2	3013	13.6	1
2	3022	13.7	1
2	3023	13.7	1
2	3024	13.7	1
2	3025	13.7	1
2	3034	13.8	1
2	3035	13.8	1
2	3036	13.8	1
2	3037	13.8	1
2	3046	13.9	1
2	3047	13.9	1
2	3048	13.9	1
2	3049	13.9	1
2	3058	14	1
2	3059	14	1
2	3060	14	1
2	3061	14	1
2	3071	14.1	1
2	3072	14.1	1
2	3073	14.1	1
2	3074	14.1	1
2	3402	14.2	1
2	3403	14.2	1
2	3404	14.2	1
2	3405	14.2	1
2	3486	14.3	1
2	3487	14.3	1
2	3488	14.3	1
2	3489	14.3	1
2	3498	14.4	1
2	3499	14.4	1
2	3500	14.4	1
2	3501	14.4	1
2	3510	14.5	1
2	3511	14.5	1
2	3512	14.5	1
2	3513	14.5	1
2	3522	14.6	1
2	3523	14.6	1
2	3524	14.6	1
2	3525	14.6	1
2	3534	14.7	1
2	3535	14.7	1
2	3536	14.7	1
2	3537	14.7	1
2	3546	14.8	1
2	3547	14.8	1
2	3548	14.8	1
2	3549	14.8	1
2	3558	14.9	1
2	3559	14.9	1
2	3560	14.9	1
2	3561	14.9	1
2	3570	15	1
2	3571	15	1
2	3572	15	1
2	3573	15	1
3	200	1.21456	36
3	211	1.22	72
3	406	2.31456	108
3	407	2.31456	144
3	420	2.32	180
3	421	2.32	216
3	439	2.32544	252
3	646	3.41456	288
3	647	3.41456	324
3	660	3.42	360
3	661	3.42	396
3	674	3.42544	432
3	675	3.42544	468
3	693	3.43088	504
3	912	4.51456	540
3	913	4.51456	576
3	926	4.52	612
3	927	4.52	648
3	940	4.52544	684
3	941	4.52544	720
3	954	4.53088	756
3	955	4.53088	792
3	973	4.53632	828
3	1409	9.71456	864
3	1410	9.71456	900
3	1423	9.72	936
3	1424	9.72	972
3	1437	9.72544	1008
3	1438	9.72544	1044
3	1451	9.73088	1080
3	1452	9.73088	1116
3	1465	9.73632	1152
3	1466	9.73632	1188
3	1484	9.74176	1224
3	1499	9.7472	1260
3	1514	9.75264	1296
3	1529	9.75808	1332
3	1540	9.76352	1368
3	1779	10.81456	1404
3	1780	10.81456	1440
3	1793	10.82	1476
3	1794	10.82	1512
3	1807	10.82544	1548
3	1808	10.82544	1584
3	1821	10.83088	1620
3	1822	10.83088	1656
3	1835	10.83632	1692
3	1836	10.83632	1728
3	1849	10.84176	1764
3	1850	10.84176	1800
3	1863	10.8472	1836
3	1864	10.8472	1872
3	1877	10.85264	1908
3	1878	10.85264	1944
3	1891	10.85808	1980
3	1892	10.85808	2016
3	1905	10.86352	2052
3	1906	10.86352	2088
3	1924	10.86896	2124
3	2216	11.91456	2160
3	2217	11.91456	2196
3	2230	11.92	2232
3	2231	11.92	2268
3	2244	11.92544	2304
3	2245	11.92544	2340
3	2258	11.93088	2376
3	2259	11.93088	2412
3	2272	11.93632	2448
3	2273	11.93632	2484
3	2286	11.94176	2520
3	2287	11.94176	2556
3	2300	11.9472	2592
3	2301	11.9472	2628
3	2314	11.95264	2664
3	2315	11.95264	2700
3	2328	11.95808	2736
3	2329	11.95808	2772
3	2342	11.96352	2808
3	2343	11.96352	2844
3	2356	11.96896	2880
3	2357	11.96896	2916
3	2375	11.9744	2952
3	2679	13.01456	2988
3	2680	13.01456	3024
3	2693	13.02	3060
3	2694	13.02	3096
3	2707	13.02544	3132
3	2708	13.02544	3168
3	2721	13.03088	3204
3	2722	13.03088	3240
3	2735	13.03632	3276
3	2736	13.03632	3312
3	2749	13.04176	3348
3	2750	13.04176	3384
3	2763	13.0472	3420
3	2764	13.0472	3456
3	2777	13.05264	3492
3	2778	13.05264	3528
3	2791	13.05808	3564
3	2792	13.05808	3600
3	2805	13.06352	3636
3	2806	13.06352	3672
3	2819	13.06896	3708
3	2820	13.06896	3744
3	2833	13.0744	3780
3	2834	13.0744	3816
3	2852	13.07984	3852
3	3172	14.11456	3888
3	3173	14.11456	3924
3	3186	14.12	3960
3	3187	14.12	3996
3	3200	14.12544	4032
3	3201	14.12544	4068
3	3214	14.13088	4104
3	3215	14.13088	4140
3	3228	14.13632	4176
3	3229	14.13632	4212
3	3242	14.14176	4248
3	3243	14.14176	4284
3	3256	14.1472	4320
3	3257	14.1472	4356
3	3270	14.15264	4392
3	3271	14.15264	4428
3	3284	14.15808	4464
3	3285	14.15808	4500
3	3298	14.16352	4536
3	3299	14.16352	4572
3	3312	14.16896	4608
3	3313	14.16896	4644
3	3326	14.1744	4680
3	3327	14.1744	4716
3	3340	14.17984	4752
3	3341	14.17984	4788
3	3359	14.18528	4824
3	3374	14.19072	4860
4	200	1.21456	36
4	211	1.22	72
4	406	2.31456	108
4	407	2.31456	144
4	420	2.32	180
4	421	2.32	216
4	439	2.32544	252
4	646	3.41456	288
4	647	3.41456	324
4	660	3.42	360
4	661	3.42	396
4	674	3.42544	432
4	675	3.42544	468
4	693	3.43088	504
4	912	4.51456	540
4	913	4.51456	576
4	926	4.52	612
4	927	4.52	648
4	940	4.52544	684
4	941	4.52544	720
4	954	4.53088	756
4	955	4.53088	792
4	973	4.53632	828
4	1409	9.71456	864
4	1410	9.71456	900
4	1423	9.72	936
4	1424	9.72	972
4	1437	9.72544	1008
4	1438	9.72544	1044
4	1451	9.73088	1080
4	1452	9.73088	1116
4	1465	9.73632	1152
4	1466	9.73632	1188
4	1484	9.74176	1224
4	1499	9.7472	1260
4	1514	9.75264	1296
4	1529	9.75808	1332
4	1540	9.76352	1368
4	1779	10.81456	1404
4	1780	10.81456	1440
4	1793	10.82	1476
4	1794	10.82	1512
4	1807	10.82544	1548
4	1808	10.82544	1584
4	1821	10.83088	1620
4	1822	10.83088	1656
4	1835	10.83632	1692
4	1836	10.83632	1728
4	1849	10.84176	1764
4	1850	10.84176	1800
4	1863	10.8472	1836
4	1864	10.8472	1872
4	1877	10.85264	1908
4	1878	10.85264	1944
4	1891	10.85808	1980
4	1892	10.85808	2016
4	1905	10.86352	2052
4	1906	10.86352	2088
4	1924	10.86896	2124
4	2216	11.91456	2160
4	2217	11.91456	2196
4	2230	11.92	2232
4	2231	11.92	2268
4	2244	11.92544	2304
4	2245	11.92544	2340
4	2258	11.93088	2376
4	2259	11.93088	2412
4	2272	11.93632	2448
4	2273	11.93632	2484
4	2286	11.94176	2520
4	2287	11.94176	2556
4	2300	11.9472	2592
4	2301	11.9472	2628
4	2314	11.95264	2664
4	2315	11.95264	2700
4	2328	11.95808	2736
4	2329	11.95808	2772
4	2342	11.96352	2808
4	2343	11.96352	2844
4	2356	11.96896	2880
4	2357	11.96896	2916
4	2375	11.9744	2952
4	2679	13.01456	2988
4	2680	13.01456	3024
4	2693	13.02	3060
4	2694	13.02	3096
4	2707	13.02544	3132
4	2708	13.02544	3168
4	2721	13.03088	3204
4	2722	13.03088	3240
4	2735	13.03632	3276
4	2736	13.03632	3312
4	2749	13.04176	3348
4	2750	13.04176	3384
4	2763	13.0472	3420
4	2764	13.0472	3456
4	2777	13.05264	3492
4	2778	13.05264	3528
4	2791	13.05808	3564
4	2792	13.05808	3600
4	2805	13.06352	3636
4	2806	13.06352	3672
4	2819	13.06896	3708
4	2820	13.06896	3744
4	2833	13.0744	3780
4	2834	13.0744	3816
4	2852	13.07984	3852
4	3172	14.11456	3888
4	3173	14.11456	3924
4	3186	14.12	3960
4	3187	14.12	3996
4	3200	14.12544	4032
4	3201	14.12544	4068
4	3214	14.13088	4104
4	3215	14.13088	4140
4	3228	14.13632	4176
4	3229	14.13632	4212
4	3242	14.14176	4248
4	3243	14.14176	4284
4	3256	14.1472	4320
4	3257	14.1472	4356
4	3270	14.15264	4392
4	3271	14.15264	4428
4	3284	14.15808	4464
4	3285	14.15808	4500
4	3298	14.16352	4536
4	3299	14.16352	4572
4	3312	14.16896	4608
4	3313	14.16896	4644
4	3326	14.1744	4680
4	3327	14.1744	4716
4	3340	14.17984	4752
4	3341	14.17984	4788
4	3359	14.18528	4824
4	3374	14.19072	4860
5	202	1.21456	10
5	213	1.22	20
5	441	2.32544	30
5	695	3.43088	40
5	1486	9.74176	50
5	1516	9.75264	60
5	1542	9.76352	70
5	1926	10.86896	80
5	2377	11.9744	90
5	2854	13.07984	100
5	3361	14.18528	110
5	3376	14.19072	120
6	202	1.21456	1.11456
6	213	1.22	0.12
6	441	2.32544	0.22544
6	695	3.43088	0.33088
6	975	4.53632	0.43632
6	1486	9.74176	4.64176
6	1501	9.7472	3.6472
6	1516	9.75264	2.65264
6	1531	9.75808	1.65808
6	1542	9.76352	0.66352
6	1926	10.86896	0.76896
6	2377	11.9744	0.8744
6	2854	13.07984	0.97984
6	3361	14.18528	1.08528
6	3376	14.19072	0.09072
7	409	2.31456	10
7	411	2.31456	20
7	423	2.32	30
7	425	2.32	40
7	649	3.41456	50
7	651	3.41456	60
7	663	3.42	70
7	665	3.42	80
7	677	3.42544	90
7	679	3.42544	100
7	915	4.51456	110
7	917	4.51456	120
7	929	4.52	130
7	931	4.52	140
7	943	4.52544	150
7	945	4.52544	160
7	957	4.53088	170
7	959	4.53088	180
7	1412	9.71456	190
7	1414	9.71456	200
7	1426	9.72	210
7	1428	9.72	220
7	1440	9.72544	230
7	1442	9.72544	240
7	1454	9.73088	250
7	1456	9.73088	260
7	1468	9.73632	270
7	1470	9.73632	280
7	1782	10.81456	290
7	1784	10.81456	300
7	1796	10.82	310
7	1798	10.82	320
7	1810	10.82544	330
7	1812	10.82544	340
7	1824	10.83088	350
7	1826	10.83088	360
7	1838	10.83632	370
7	1840	10.83632	380
7	1852	10.84176	390
7	1854	10.84176	400
7	1866	10.8472	410
7	1868	10.8472	420
7	1880	10.85264	430
7	1882	10.85264	440
7	1894	10.85808	450
7	1896	10.85808	460
7	1908	10.86352	470
7	1910	10.86352	480
7	2219	11.91456	490
7	2221	11.91456	500
7	2233	11.92	510
7	2235	11.92	520
7	2247	11.92544	530
7	2249	11.92544	540
7	2261	11.93088	550
7	2263	11.93088	560
7	2275	11.93632	570
7	2277	11.93632	580
7	2289	11.94176	590
7	2291	11.94176	600
7	2303	11.9472	610
7	2305	11.9472	620
7	2317	11.95264	630
7	2319	11.95264	640
7	2331	11.95808	650
7	2333	11.95808	660
7	2345	11.96352	670
7	2347	11.96352	680
7	2359	11.96896	690
7	2361	11.96896	700
7	2682	13.01456	710
7	2684	13.01456	720
7	2696	13.02	730
7	2698	13.02	740
7	2710	13.02544	750
7	2712	13.02544	760
7	2724	13.03088	770
7	2726	13.03088	780
7	2738	13.03632	790
7	2740	13.03632	800
7	2752	13.04176	810
7	2754	13.04176	820
7	2766	13.0472	830
7	2768	13.0472	840
7	2780	13.05264	850
7	2782	13.05264	860
7	2794	13.05808	870
7	2796	13.05808	880
7	2808	13.06352	890
7	2810	13.06352	900
7	2822	13.06896	910
7	2824	13.06896	920
7	2836	13.0744	930
7	2838	13.0744	940
7	3175	14.11456	950
7	3177	14.11456	960
7	3189	14.12	970
7	3191	14.12	980
7	3203	14.12544	990
7	3205	14.12544	1000
7	3217	14.13088	1010
7	3219	14.13088	1020
7	3231	14.13632	1030
7	3233	14.13632	1040
7	3245	14.14176	1050
7	3247	14.14176	1060
7	3259	14.1472	1070
7	3261	14.1472	1080
7	3273	14.15264	1090
7	3275	14.15264	1100
7	3287	14.15808	1110
7	3289	14.15808	1120
7	3301	14.16352	1130
7	3303	14.16352	1140
7	3315	14.16896	1150
7	3317	14.16896	1160
7	3329	14.1744	1170
7	3331	14.1744	1180
7	3343	14.17984	1190
7	3345	14.17984	1200
8	795	4.1	20
8	1146	6.1	40
8	1250	8.1	60
9	975	4.53632	10
9	1501	9.7472	20
9	1531	9.75808	30

