version 2
run Moves5-0-20190827-20:25:57-9812
attr configname Moves5
attr datetime 20190827-20:25:57
attr experiment Moves5
attr inifile SimV2.ini
attr iterationvars ""
attr iterationvarsf ""
attr measurement ""
attr network NetworkTormV2
attr processid 9812
attr repetition 0
attr replication #0
attr resultdir results
attr runnumber 0
attr seedset 0
param **.mobility.traceFile "\"paths/Moves5.movements\""
param **.numNodes 2
param **.application.usedRNG 1
param **.application.dataGenerationInterval 1ms
param **.application.dataSizeInBytes 10
param **.application.ttl 999999s
param **application.destinationAddr "\"Wf:00:00:00:00:02\""
param **application.destinationBTAddr "\"Bt:00:00:00:00:02\""
param **application.nodesThatGen true
param **application.nodesGenMsg "\"0\""
param **application.startMultipleMsg true
param **application.numMultipleMsg 100
param **.routingLayer "\"EpidemicRoutingLayer\""
param **.routing.maximumCacheSize 5000byte
param **.routing.maximumHopCount 25
param **.routing.useTTL false
param **.neighboring.antiEntropyInterval 200ms
param **.neighboring.maximumRandomBackoffDuration 1s
param **.neighboring.delayPerDataMsg 0.1
param **neighboring.usedRNG 2
param **.neighboring.GWAddr "\"02:00:00:00:00:03\""
param **.neighboring.sendWifiFirst true
param **.storage.maximumCacheSize 5000byte
param **.wirelessIfc.wirelessRange 15m
param **.wirelessIfc.neighbourScanInterval 50ms
param **.wirelessIfc.bandwidthBitRate 100000bps
param **.wirelessIfc.wirelessHeaderSize 32byte
param **.wirelessIfc.minSSI -90
param **.bluetoothIfc.wirelessRange 15m
param **.bluetoothIfc.neighbourScanInterval 100ms
param **.bluetoothIfc.bandwidthBitRate 100000bps
param **.bluetoothIfc.wirelessHeaderSize 16byte
param **.bluetoothIfc.minSSI -90
param **.mobilityType "\"BonnMotionMobility\""
param **.mobility.traceFile "\"paths/Moves2.movements\""
param **.mobility.nodeId -1

vector 0 NetworkTormV2 neighbourhoodSize:vector ETV
attr source neighbourhoodSize
vector 1 NetworkTormV2 deliveryRatio:vector ETV
attr source sum(totalDataBytesReceived)/sum(totalDataBytesReceivableByAllNodes)
vector 2 NetworkTormV2 dataBytesReceivedSum:vector ETV
attr source sum(dataBytesReceived)
vector 3 NetworkTormV2 totalBytesReceivedSum:vector ETV
attr source sum(totalBytesReceived)
0	7	0.05	1
0	8	0.05	1
0	14	0.1	1
0	15	0.1	1
0	17	0.1	1
0	18	0.1	1
0	126	0.15	1
0	127	0.15	1
0	232	0.2	1
0	233	0.2	1
0	235	0.2	1
0	236	0.2	1
0	245	0.25	1
0	246	0.25	1
0	251	0.3	1
0	252	0.3	1
0	254	0.3	1
0	255	0.3	1
0	264	0.35	1
0	265	0.35	1
0	270	0.4	1
0	271	0.4	1
0	273	0.4	1
0	274	0.4	1
0	283	0.45	1
0	284	0.45	1
0	289	0.5	1
0	290	0.5	1
0	292	0.5	1
0	293	0.5	1
0	302	0.55	1
0	303	0.55	1
0	308	0.6	1
0	309	0.6	1
0	311	0.6	1
0	312	0.6	1
0	321	0.65	1
0	322	0.65	1
0	327	0.7	1
0	328	0.7	1
0	330	0.7	1
0	331	0.7	1
0	340	0.75	1
0	341	0.75	1
0	346	0.8	1
0	347	0.8	1
0	349	0.8	1
0	350	0.8	1
0	359	0.85	1
0	360	0.85	1
0	365	0.9	1
0	366	0.9	1
0	368	0.9	1
0	369	0.9	1
0	378	0.95	1
0	379	0.95	1
0	384	1	1
0	385	1	1
0	387	1	1
0	388	1	1
0	397	1.05	1
0	398	1.05	1
0	403	1.1	1
0	404	1.1	1
0	406	1.1	1
0	407	1.1	1
0	712	1.15	1
0	713	1.15	1
0	808	1.2	1
0	809	1.2	1
0	811	1.2	1
0	812	1.2	1
0	911	1.25	1
0	912	1.25	1
0	1013	1.3	1
0	1014	1.3	1
0	1016	1.3	1
0	1017	1.3	1
0	1116	1.35	1
0	1117	1.35	1
0	1223	1.4	1
0	1224	1.4	1
0	1226	1.4	1
0	1227	1.4	1
0	1330	1.45	1
0	1331	1.45	1
0	1426	1.5	1
0	1427	1.5	1
0	1429	1.5	1
0	1430	1.5	1
0	1535	1.55	1
0	1536	1.55	1
0	1633	1.6	1
0	1634	1.6	1
0	1636	1.6	1
0	1637	1.6	1
0	1736	1.65	1
0	1737	1.65	1
0	2250	1.7	1
0	2251	1.7	1
0	2253	1.7	1
0	2254	1.7	1
0	2377	1.75	1
0	2378	1.75	1
0	2491	1.8	1
0	2492	1.8	1
0	2494	1.8	1
0	2495	1.8	1
0	2614	1.85	1
0	2615	1.85	1
0	2728	1.9	1
0	2729	1.9	1
0	2731	1.9	1
0	2732	1.9	1
0	2855	1.95	1
0	2856	1.95	1
0	2975	2	1
0	2976	2	1
0	2978	2	1
0	2979	2	1
0	3096	2.05	1
0	3097	2.05	1
0	3210	2.1	1
0	3211	2.1	1
0	3213	2.1	1
0	3214	2.1	1
0	3331	2.15	1
0	3332	2.15	1
0	3451	2.2	1
0	3452	2.2	1
0	3454	2.2	1
0	3455	2.2	1
0	3812	2.25	1
0	3813	2.25	1
0	3973	2.3	1
0	3974	2.3	1
0	3976	2.3	1
0	3977	2.3	1
0	4142	2.35	1
0	4143	2.35	1
0	4304	2.4	1
0	4305	2.4	1
0	4307	2.4	1
0	4308	2.4	1
0	4475	2.45	1
0	4476	2.45	1
0	4601	2.5	1
0	4602	2.5	1
0	4604	2.5	1
0	4605	2.5	1
0	4704	2.55	1
0	4705	2.55	1
0	4804	2.6	1
0	4805	2.6	1
0	4807	2.6	1
0	4808	2.6	1
0	4907	2.65	1
0	4908	2.65	1
0	5003	2.7	1
0	5004	2.7	1
0	5006	2.7	1
0	5007	2.7	1
0	5112	2.75	1
0	5113	2.75	1
0	5208	2.8	1
0	5209	2.8	1
0	5211	2.8	1
0	5212	2.8	1
0	5311	2.85	1
0	5312	2.85	1
0	5411	2.9	1
0	5412	2.9	1
0	5414	2.9	1
0	5415	2.9	1
0	5514	2.95	1
0	5515	2.95	1
0	5616	3	1
0	5617	3	1
0	5619	3	1
0	5620	3	1
0	5920	3.05	1
0	5921	3.05	1
0	6020	3.1	1
0	6021	3.1	1
0	6023	3.1	1
0	6024	3.1	1
0	6123	3.15	1
0	6124	3.15	1
0	6221	3.2	1
0	6222	3.2	1
0	6224	3.2	1
0	6225	3.2	1
0	6330	3.25	1
0	6331	3.25	1
0	6426	3.3	1
0	6427	3.3	1
0	6429	3.3	1
0	6430	3.3	1
0	6533	3.35	1
0	6534	3.35	1
0	6629	3.4	1
0	6630	3.4	1
0	6632	3.4	1
0	6633	3.4	1
0	6732	3.45	1
0	6733	3.45	1
0	6834	3.5	1
0	6835	3.5	1
0	6837	3.5	1
0	6838	3.5	1
0	6937	3.55	1
0	6938	3.55	1
0	7238	3.6	1
0	7239	3.6	1
0	7241	3.6	1
0	7242	3.6	1
0	7341	3.65	1
0	7342	3.65	1
0	7437	3.7	1
0	7438	3.7	1
0	7440	3.7	1
0	7441	3.7	1
0	7548	3.75	1
0	7549	3.75	1
0	7644	3.8	1
0	7645	3.8	1
0	7647	3.8	1
0	7648	3.8	1
0	7751	3.85	1
0	7752	3.85	1
0	7847	3.9	1
0	7848	3.9	1
0	7850	3.9	1
0	7851	3.9	1
0	7950	3.95	1
0	7951	3.95	1
0	8052	4	1
0	8053	4	1
0	8055	4	1
0	8056	4	1
0	8155	4.05	1
0	8156	4.05	1
0	8255	4.1	1
0	8256	4.1	1
0	8258	4.1	1
0	8259	4.1	1
0	8559	4.15	1
0	8560	4.15	1
0	8661	4.2	1
0	8662	4.2	1
0	8664	4.2	1
0	8665	4.2	1
0	8764	4.25	1
0	8765	4.25	1
0	8862	4.3	1
0	8863	4.3	1
0	8865	4.3	1
0	8866	4.3	1
0	8969	4.35	1
0	8970	4.35	1
0	9065	4.4	1
0	9066	4.4	1
0	9068	4.4	1
0	9069	4.4	1
0	9174	4.45	1
0	9175	4.45	1
0	9270	4.5	1
0	9271	4.5	1
0	9273	4.5	1
0	9274	4.5	1
0	9373	4.55	1
0	9374	4.55	1
0	9473	4.6	1
0	9474	4.6	1
0	9476	4.6	1
0	9477	4.6	1
0	9576	4.65	1
0	9577	4.65	1
0	9879	4.7	1
0	9880	4.7	1
0	9882	4.7	1
0	9883	4.7	1
0	9982	4.75	1
0	9983	4.75	1
0	10082	4.8	1
0	10083	4.8	1
0	10085	4.8	1
0	10086	4.8	1
0	10187	4.85	1
0	10188	4.85	1
0	10283	4.9	1
0	10284	4.9	1
0	10286	4.9	1
0	10287	4.9	1
0	10392	4.95	1
0	10393	4.95	1
0	10488	5	1
0	10489	5	1
0	10491	5	1
0	10492	5	1
0	10591	5.05	1
0	10592	5.05	1
0	10691	5.1	1
0	10692	5.1	1
0	10694	5.1	1
0	10695	5.1	1
0	10794	5.15	1
0	10795	5.15	1
0	10896	5.2	1
0	10897	5.2	1
0	10899	5.2	1
0	10900	5.2	1
0	11200	5.25	1
0	11201	5.25	1
0	11300	5.3	1
0	11301	5.3	1
0	11303	5.3	1
0	11304	5.3	1
0	11403	5.35	0
0	11404	5.35	0
0	11414	5.4	0
0	11415	5.4	0
0	11417	5.4	0
0	11418	5.4	0
0	11429	5.45	0
0	11430	5.45	0
0	11440	5.5	0
0	11441	5.5	0
0	11443	5.5	0
0	11444	5.5	0
0	11454	5.55	0
0	11455	5.55	0
0	11465	5.6	0
0	11466	5.6	0
0	11468	5.6	0
0	11469	5.6	0
0	11479	5.65	0
0	11480	5.65	0
0	11491	5.7	0
0	11492	5.7	0
0	11494	5.7	0
0	11495	5.7	0
0	11505	5.75	0
0	11506	5.75	0
0	11509	5.8	0
0	11510	5.8	0
0	11512	5.8	0
0	11513	5.8	0
0	11514	5.85	0
0	11515	5.85	0
0	11516	5.9	0
0	11517	5.9	0
0	11519	5.9	0
0	11520	5.9	0
0	11521	5.95	0
0	11522	5.95	0
0	11523	6	0
0	11524	6	0
0	11526	6	0
0	11527	6	0
0	11528	6.05	0
0	11529	6.05	0
0	11530	6.1	0
0	11531	6.1	0
0	11533	6.1	0
0	11534	6.1	0
0	11535	6.15	0
0	11536	6.15	0
0	11537	6.2	0
0	11538	6.2	0
0	11540	6.2	0
0	11541	6.2	0
0	11542	6.25	0
0	11543	6.25	0
0	11544	6.3	0
0	11545	6.3	0
0	11547	6.3	0
0	11548	6.3	0
0	11549	6.35	0
0	11550	6.35	0
0	11551	6.4	0
0	11552	6.4	0
0	11554	6.4	0
0	11555	6.4	0
0	11556	6.45	0
0	11557	6.45	0
0	11558	6.5	0
0	11559	6.5	0
0	11561	6.5	0
0	11562	6.5	0
0	11563	6.55	0
0	11564	6.55	0
0	11565	6.6	0
0	11566	6.6	0
0	11568	6.6	0
0	11569	6.6	0
0	11570	6.65	0
0	11571	6.65	0
0	11572	6.7	0
0	11573	6.7	0
0	11575	6.7	0
0	11576	6.7	0
0	11577	6.75	0
0	11578	6.75	0
0	11579	6.8	0
0	11580	6.8	0
0	11582	6.8	0
0	11583	6.8	0
0	11584	6.85	0
0	11585	6.85	0
0	11586	6.9	0
0	11587	6.9	0
0	11589	6.9	0
0	11590	6.9	0
0	11591	6.95	0
0	11592	6.95	0
0	11593	7	0
0	11594	7	0
0	11596	7	0
0	11597	7	0
0	11598	7.05	0
0	11599	7.05	0
0	11600	7.1	0
0	11601	7.1	0
0	11603	7.1	0
0	11604	7.1	0
0	11605	7.15	0
0	11606	7.15	0
0	11607	7.2	0
0	11608	7.2	0
0	11610	7.2	0
0	11611	7.2	0
0	11612	7.25	0
0	11613	7.25	0
0	11614	7.3	0
0	11615	7.3	0
0	11617	7.3	0
0	11618	7.3	0
0	11619	7.35	0
0	11620	7.35	0
0	11621	7.4	0
0	11622	7.4	0
0	11624	7.4	0
0	11625	7.4	0
0	11626	7.45	0
0	11627	7.45	0
0	11628	7.5	0
0	11629	7.5	0
0	11631	7.5	0
0	11632	7.5	0
0	11633	7.55	0
0	11634	7.55	0
0	11635	7.6	0
0	11636	7.6	0
0	11638	7.6	0
0	11639	7.6	0
0	11640	7.65	0
0	11641	7.65	0
0	11642	7.7	0
0	11643	7.7	0
0	11645	7.7	0
0	11646	7.7	0
0	11647	7.75	0
0	11648	7.75	0
0	11649	7.8	0
0	11650	7.8	0
0	11652	7.8	0
0	11653	7.8	0
0	11654	7.85	0
0	11655	7.85	0
0	11656	7.9	0
0	11657	7.9	0
0	11659	7.9	0
0	11660	7.9	0
0	11661	7.95	0
0	11662	7.95	0
0	11663	8	0
0	11664	8	0
0	11666	8	0
0	11667	8	0
0	11668	8.05	0
0	11669	8.05	0
0	11670	8.1	0
0	11671	8.1	0
0	11673	8.1	0
0	11674	8.1	0
0	11675	8.15	0
0	11676	8.15	0
0	11677	8.2	0
0	11678	8.2	0
0	11680	8.2	0
0	11681	8.2	0
0	11682	8.25	0
0	11683	8.25	0
0	11684	8.3	0
0	11685	8.3	0
0	11687	8.3	0
0	11688	8.3	0
0	11689	8.35	0
0	11690	8.35	0
0	11691	8.4	0
0	11692	8.4	0
0	11694	8.4	0
0	11695	8.4	0
0	11696	8.45	0
0	11697	8.45	0
0	11698	8.5	0
0	11699	8.5	0
0	11701	8.5	0
0	11702	8.5	0
0	11703	8.55	0
0	11704	8.55	0
0	11705	8.6	0
0	11706	8.6	0
0	11708	8.6	0
0	11709	8.6	0
0	11710	8.65	0
0	11711	8.65	0
0	11712	8.7	0
0	11713	8.7	0
0	11715	8.7	0
0	11716	8.7	0
0	11717	8.75	0
0	11718	8.75	0
0	11719	8.8	0
0	11720	8.8	0
0	11722	8.8	0
0	11723	8.8	0
0	11724	8.85	0
0	11725	8.85	0
0	11726	8.9	0
0	11727	8.9	0
0	11729	8.9	0
0	11730	8.9	0
0	11731	8.95	0
0	11732	8.95	0
0	11733	9	0
0	11734	9	0
0	11736	9	0
0	11737	9	0
0	11738	9.05	0
0	11739	9.05	0
0	11740	9.1	0
0	11741	9.1	0
0	11743	9.1	0
0	11744	9.1	0
0	11745	9.15	0
0	11746	9.15	0
0	11747	9.2	0
0	11748	9.2	0
0	11750	9.2	0
0	11751	9.2	0
0	11752	9.25	0
0	11753	9.25	0
0	11754	9.3	0
0	11755	9.3	0
0	11757	9.3	0
0	11758	9.3	0
0	11759	9.35	0
0	11760	9.35	0
0	11761	9.4	0
0	11762	9.4	0
0	11764	9.4	0
0	11765	9.4	0
0	11766	9.45	0
0	11767	9.45	0
0	11768	9.5	0
0	11769	9.5	0
0	11771	9.5	0
0	11772	9.5	0
0	11773	9.55	0
0	11774	9.55	0
0	11775	9.6	0
0	11776	9.6	0
0	11778	9.6	0
0	11779	9.6	0
0	11780	9.65	0
0	11781	9.65	0
0	11782	9.7	1
0	11783	9.7	1
0	11785	9.7	1
0	11786	9.7	1
0	12305	9.75	1
0	12306	9.75	1
0	12419	9.8	1
0	12420	9.8	1
0	12422	9.8	1
0	12423	9.8	1
0	12540	9.85	1
0	12541	9.85	1
0	12666	9.9	1
0	12667	9.9	1
0	12669	9.9	1
0	12670	9.9	1
0	12791	9.95	1
0	12792	9.95	1
0	12905	10	1
0	12906	10	1
0	12908	10	1
0	12909	10	1
1	13	0.1	-nan
1	28	0.101	-nan
1	30	0.102	-nan
1	32	0.103	-nan
1	34	0.104	-nan
1	36	0.105	-nan
1	38	0.106	-nan
1	40	0.107	-nan
1	42	0.108	-nan
1	44	0.109	-nan
1	46	0.11	-nan
1	48	0.111	-nan
1	50	0.112	-nan
1	52	0.113	-nan
1	54	0.114	-nan
1	56	0.115	-nan
1	58	0.116	-nan
1	60	0.117	-nan
1	62	0.118	-nan
1	64	0.119	-nan
1	66	0.12	-nan
1	68	0.121	-nan
1	70	0.122	-nan
1	72	0.123	-nan
1	74	0.124	-nan
1	76	0.125	-nan
1	78	0.126	-nan
1	80	0.127	-nan
1	82	0.128	-nan
1	84	0.129	-nan
1	86	0.13	-nan
1	88	0.131	-nan
1	90	0.132	-nan
1	92	0.133	-nan
1	94	0.134	-nan
1	96	0.135	-nan
1	98	0.136	-nan
1	100	0.137	-nan
1	102	0.138	-nan
1	104	0.139	-nan
1	106	0.14	-nan
1	108	0.141	-nan
1	110	0.142	-nan
1	112	0.143	-nan
1	114	0.144	-nan
1	116	0.145	-nan
1	118	0.146	-nan
1	120	0.147	-nan
1	122	0.148	-nan
1	124	0.149	-nan
1	128	0.15	-nan
1	134	0.151	-nan
1	136	0.152	-nan
1	138	0.153	-nan
1	140	0.154	-nan
1	142	0.155	-nan
1	144	0.156	-nan
1	146	0.157	-nan
1	148	0.158	-nan
1	150	0.159	-nan
1	152	0.16	-nan
1	154	0.161	-nan
1	156	0.162	-nan
1	158	0.163	-nan
1	160	0.164	-nan
1	162	0.165	-nan
1	164	0.166	-nan
1	166	0.167	-nan
1	168	0.168	-nan
1	170	0.169	-nan
1	172	0.17	-nan
1	174	0.171	-nan
1	176	0.172	-nan
1	178	0.173	-nan
1	180	0.174	-nan
1	182	0.175	-nan
1	184	0.176	-nan
1	186	0.177	-nan
1	188	0.178	-nan
1	190	0.179	-nan
1	192	0.18	-nan
1	194	0.181	-nan
1	196	0.182	-nan
1	198	0.183	-nan
1	200	0.184	-nan
1	202	0.185	-nan
1	204	0.186	-nan
1	206	0.187	-nan
1	208	0.188	-nan
1	210	0.189	-nan
1	212	0.19	-nan
1	214	0.191	-nan
1	216	0.192	-nan
1	218	0.193	-nan
1	220	0.194	-nan
1	222	0.195	-nan
1	224	0.196	-nan
1	226	0.197	-nan
1	228	0.198	-nan
1	230	0.199	-nan
2	645	1.11456	36
2	655	1.12	72
2	665	1.12544	108
2	675	1.13088	144
2	685	1.13632	180
2	695	1.14176	216
2	705	1.1472	252
2	721	1.15264	288
2	731	1.15808	324
2	741	1.16352	360
2	751	1.16896	396
2	761	1.1744	432
2	771	1.17984	468
2	781	1.18528	504
2	791	1.19072	540
2	801	1.19616	576
2	824	1.2016	612
2	834	1.20704	648
2	844	1.21248	684
2	854	1.21792	720
2	864	1.22336	756
2	874	1.2288	792
2	884	1.23424	828
2	894	1.23968	864
2	904	1.24512	900
2	920	1.25056	936
2	930	1.256	972
2	940	1.26144	1008
2	950	1.26688	1044
2	960	1.27232	1080
2	970	1.27776	1116
2	980	1.2832	1152
2	990	1.28864	1188
2	1000	1.29408	1224
2	1010	1.29952	1260
2	1033	1.30496	1296
2	1043	1.3104	1332
2	1053	1.31584	1368
2	1063	1.32128	1404
2	1073	1.32672	1440
2	1083	1.33216	1476
2	1093	1.3376	1512
2	1103	1.34304	1548
2	1113	1.34848	1584
2	1133	1.35392	1620
2	1150	1.35936	1656
2	1160	1.3648	1692
2	1170	1.37024	1728
2	1180	1.37568	1764
2	1190	1.38112	1800
2	1200	1.38656	1836
2	1210	1.392	1872
2	1220	1.39744	1908
2	1243	1.40288	1944
2	1253	1.40832	1980
2	1263	1.41376	2016
2	1273	1.4192	2052
2	1283	1.42464	2088
2	1293	1.43008	2124
2	1303	1.43552	2160
2	1313	1.44096	2196
2	1323	1.4464	2232
2	1339	1.45184	2268
2	1349	1.45728	2304
2	1359	1.46272	2340
2	1369	1.46816	2376
2	1379	1.4736	2412
2	1389	1.47904	2448
2	1399	1.48448	2484
2	1409	1.48992	2520
2	1419	1.49536	2556
2	1442	1.5008	2592
2	1452	1.50624	2628
2	1462	1.51168	2664
2	1472	1.51712	2700
2	1482	1.52256	2736
2	1492	1.528	2772
2	1502	1.53344	2808
2	1512	1.53888	2844
2	1522	1.54432	2880
2	1532	1.54976	2916
2	1550	1.5552	2952
2	1560	1.56064	2988
2	1570	1.56608	3024
2	1580	1.57152	3060
2	1590	1.57696	3096
2	1600	1.5824	3132
2	1610	1.58784	3168
2	1620	1.59328	3204
2	1630	1.59872	3240
2	1653	1.60416	3276
2	1663	1.6096	3312
2	1673	1.61504	3348
2	1683	1.62048	3384
2	1693	1.62592	3420
2	1703	1.63136	3456
2	1713	1.6368	3492
2	1723	1.64224	3528
2	1733	1.64768	3564
2	1749	1.65312	3600
2	2181	1.66768	3636
2	2187	1.67216	3672
2	2193	1.67312	3708
2	2199	1.6776	3744
2	2205	1.67856	3780
2	2211	1.68304	3816
2	2217	1.684	3852
2	2223	1.68848	3888
2	2229	1.68944	3924
2	2235	1.69392	3960
2	2241	1.69488	3996
2	2247	1.69936	4032
2	2266	1.70032	4068
2	2272	1.7048	4104
2	2278	1.70576	4140
2	2284	1.71024	4176
2	2290	1.7112	4212
2	2296	1.71568	4248
2	2302	1.71664	4284
2	2308	1.72112	4320
2	2314	1.72208	4356
2	2320	1.72656	4392
2	2326	1.72752	4428
2	2332	1.732	4464
2	2338	1.73296	4500
2	2344	1.73744	4536
2	2350	1.7384	4572
2	2356	1.74288	4608
2	2362	1.74384	4644
2	2368	1.74832	4680
2	2374	1.74928	4716
2	2386	1.75376	4752
2	2392	1.75472	4788
2	2398	1.7592	4824
2	2404	1.76016	4860
2	2410	1.76464	4896
2	2416	1.7656	4932
2	2422	1.77008	4968
2	2428	1.77104	5004
2	2434	1.77552	5040
2	2440	1.77648	5076
2	2446	1.78096	5112
2	2452	1.78192	5148
2	2458	1.7864	5184
2	2464	1.78736	5220
2	2470	1.79184	5256
2	2476	1.7928	5292
2	2482	1.79728	5328
2	2488	1.79824	5364
2	2509	1.80272	5400
2	2515	1.80368	5436
2	2521	1.80816	5472
2	2527	1.80912	5508
2	2533	1.8136	5544
2	2539	1.81456	5580
2	2545	1.81904	5616
2	2551	1.82	5652
2	2557	1.82448	5688
2	2563	1.82544	5724
2	2569	1.82992	5760
2	2575	1.83088	5796
2	2581	1.83536	5832
2	2587	1.83632	5868
2	2593	1.8408	5904
2	2599	1.84176	5940
2	2605	1.84624	5976
2	2611	1.8472	6012
2	2623	1.85168	6048
2	2629	1.85264	6084
2	2635	1.85712	6120
2	2641	1.85808	6156
2	2647	1.86256	6192
2	2653	1.86352	6228
2	2659	1.868	6264
2	2665	1.86896	6300
2	2671	1.87344	6336
2	2677	1.8744	6372
2	2683	1.87888	6408
2	2689	1.87984	6444
2	2695	1.88432	6480
2	2701	1.88528	6516
2	2707	1.88976	6552
2	2713	1.89072	6588
2	2719	1.8952	6624
2	2725	1.89616	6660
2	2744	1.90064	6696
2	2750	1.9016	6732
2	2756	1.90608	6768
2	2762	1.90704	6804
2	2768	1.91152	6840
2	2774	1.91248	6876
2	2780	1.91696	6912
2	2786	1.91792	6948
2	2792	1.9224	6984
2	2798	1.92336	7020
2	2804	1.92784	7056
2	2810	1.9288	7092
2	2816	1.93328	7128
2	2822	1.93424	7164
2	2828	1.93872	7200
2	2834	1.93968	7236
2	2840	1.94416	7272
2	2846	1.94512	7308
2	2852	1.9496	7344
2	2864	1.95056	7380
2	2870	1.95504	7416
2	2876	1.956	7452
2	2882	1.96048	7488
2	2888	1.96144	7524
2	2894	1.96592	7560
2	2900	1.96688	7596
2	2906	1.97136	7632
2	2912	1.97232	7668
2	2918	1.9768	7704
2	2924	1.97776	7740
2	2930	1.98224	7776
2	2936	1.9832	7812
2	2942	1.98768	7848
2	2948	1.98864	7884
2	2954	1.99312	7920
2	2960	1.99408	7956
2	2966	1.99856	7992
2	2972	1.99952	8028
2	2991	2.004	8064
2	2997	2.00496	8100
2	3003	2.00944	8136
2	3009	2.0104	8172
2	3015	2.01488	8208
2	3021	2.01584	8244
2	3027	2.02032	8280
2	3033	2.02128	8316
2	3039	2.02576	8352
2	3045	2.02672	8388
2	3051	2.0312	8424
2	3057	2.03216	8460
2	3063	2.03664	8496
2	3069	2.0376	8532
2	3075	2.04208	8568
2	3081	2.04304	8604
2	3087	2.04752	8640
2	3093	2.04848	8676
2	3105	2.05296	8712
2	3111	2.05392	8748
2	3117	2.0584	8784
2	3123	2.05936	8820
2	3129	2.06384	8856
2	3135	2.0648	8892
2	3141	2.06928	8928
2	3147	2.07024	8964
2	3153	2.07472	9000
2	3159	2.07568	9036
2	3165	2.08016	9072
2	3171	2.08112	9108
2	3177	2.0856	9144
2	3183	2.08656	9180
2	3189	2.09104	9216
2	3195	2.092	9252
2	3201	2.09648	9288
2	3207	2.09744	9324
2	3226	2.10192	9360
2	3232	2.10288	9396
2	3238	2.10736	9432
2	3244	2.10832	9468
2	3250	2.1128	9504
2	3256	2.11376	9540
2	3262	2.11824	9576
2	3268	2.1192	9612
2	3274	2.12368	9648
2	3280	2.12464	9684
2	3286	2.12912	9720
2	3292	2.13008	9756
2	3298	2.13456	9792
2	3304	2.13552	9828
2	3310	2.14	9864
2	3316	2.14096	9900
2	3322	2.14544	9936
2	3328	2.1464	9972
2	3340	2.15088	10008
2	3346	2.15184	10044
2	3352	2.15632	10080
2	3358	2.15728	10116
2	3364	2.16176	10152
2	3370	2.16272	10188
2	3376	2.1672	10224
2	3382	2.16816	10260
2	3388	2.17264	10296
2	3394	2.1736	10332
2	3400	2.17808	10368
2	3406	2.17904	10404
2	3412	2.18352	10440
2	3418	2.18448	10476
2	3424	2.18896	10512
2	3430	2.18992	10548
2	3436	2.1944	10584
2	3442	2.19536	10620
2	3448	2.19984	10656
2	3467	2.2008	10692
2	3473	2.20528	10728
2	3479	2.20624	10764
2	3485	2.21072	10800
2	4548	2.47216	10836
2	4558	2.4776	10872
2	4568	2.48304	10908
2	4578	2.48848	10944
2	4588	2.49392	10980
2	4598	2.49936	11016
2	4621	2.5048	11052
2	4631	2.51024	11088
2	4641	2.51568	11124
2	4651	2.52112	11160
2	4661	2.52656	11196
2	4671	2.532	11232
2	4681	2.53744	11268
2	4691	2.54288	11304
2	4701	2.54832	11340
2	4717	2.55376	11376
2	4727	2.5592	11412
2	4737	2.56464	11448
2	4747	2.57008	11484
2	4757	2.57552	11520
2	4767	2.58096	11556
2	4777	2.5864	11592
2	4787	2.59184	11628
2	4797	2.59728	11664
2	4820	2.60272	11700
2	4830	2.60816	11736
2	4840	2.6136	11772
2	4850	2.61904	11808
2	4860	2.62448	11844
2	4870	2.62992	11880
2	4880	2.63536	11916
2	4890	2.6408	11952
2	4900	2.64624	11988
2	4916	2.65168	12024
2	4926	2.65712	12060
2	4936	2.66256	12096
2	4946	2.668	12132
2	4956	2.67344	12168
2	4966	2.67888	12204
2	4976	2.68432	12240
2	4986	2.68976	12276
2	4996	2.6952	12312
2	5019	2.70064	12348
2	5029	2.70608	12384
2	5039	2.71152	12420
2	5049	2.71696	12456
2	5059	2.7224	12492
2	5069	2.72784	12528
2	5079	2.73328	12564
2	5089	2.73872	12600
2	5099	2.74416	12636
2	5109	2.7496	12672
2	5125	2.75504	12708
2	5135	2.76048	12744
2	5145	2.76592	12780
2	5155	2.77136	12816
2	5165	2.7768	12852
2	5175	2.78224	12888
2	5185	2.78768	12924
2	5195	2.79312	12960
2	5205	2.79856	12996
2	5228	2.804	13032
2	5238	2.80944	13068
2	5248	2.81488	13104
2	5258	2.82032	13140
2	5268	2.82576	13176
2	5278	2.8312	13212
2	5288	2.83664	13248
2	5298	2.84208	13284
2	5308	2.84752	13320
2	5324	2.85296	13356
2	5334	2.8584	13392
2	5344	2.86384	13428
2	5354	2.86928	13464
2	5364	2.87472	13500
2	5374	2.88016	13536
2	5384	2.8856	13572
2	5394	2.89104	13608
2	5404	2.89648	13644
2	5427	2.90192	13680
2	5437	2.90736	13716
2	5447	2.9128	13752
2	5457	2.91824	13788
2	5467	2.92368	13824
2	5477	2.92912	13860
2	5487	2.93456	13896
2	5497	2.94	13932
2	5507	2.94544	13968
2	5523	2.95088	14004
2	5533	2.95632	14040
2	5543	2.96176	14076
2	5553	2.9672	14112
2	5563	2.97264	14148
2	5573	2.97808	14184
2	5583	2.98352	14220
2	5593	2.98896	14256
2	5603	2.9944	14292
2	5613	2.99984	14328
2	5636	3.00528	14364
2	5646	3.01072	14400
2	5867	3.0208	14436
2	5877	3.02624	14472
2	5887	3.03168	14508
2	5897	3.03712	14544
2	5907	3.04256	14580
2	5917	3.048	14616
2	5933	3.05344	14652
2	5943	3.05888	14688
2	5953	3.06432	14724
2	5963	3.06976	14760
2	5973	3.0752	14796
2	5983	3.08064	14832
2	5993	3.08608	14868
2	6003	3.09152	14904
2	6013	3.09696	14940
2	6036	3.1024	14976
2	6046	3.10784	15012
2	6056	3.11328	15048
2	6066	3.11872	15084
2	6076	3.12416	15120
2	6086	3.1296	15156
2	6096	3.13504	15192
2	6106	3.14048	15228
2	6116	3.14592	15264
2	6134	3.15136	15300
2	6144	3.1568	15336
2	6154	3.16224	15372
2	6164	3.16768	15408
2	6174	3.17312	15444
2	6184	3.17856	15480
2	6194	3.184	15516
2	6204	3.18944	15552
2	6214	3.19488	15588
2	6237	3.20032	15624
2	6247	3.20576	15660
2	6257	3.2112	15696
2	6267	3.21664	15732
2	6277	3.22208	15768
2	6287	3.22752	15804
2	6297	3.23296	15840
2	6307	3.2384	15876
2	6317	3.24384	15912
2	6327	3.24928	15948
2	6343	3.25472	15984
2	6353	3.26016	16020
2	6363	3.2656	16056
2	6373	3.27104	16092
2	6383	3.27648	16128
2	6393	3.28192	16164
2	6403	3.28736	16200
2	6413	3.2928	16236
2	6423	3.29824	16272
2	6446	3.30368	16308
2	6456	3.30912	16344
2	6466	3.31456	16380
2	6476	3.32	16416
2	6486	3.32544	16452
2	6496	3.33088	16488
2	6506	3.33632	16524
2	6516	3.34176	16560
2	6526	3.3472	16596
2	6542	3.35264	16632
2	6552	3.35808	16668
2	6562	3.36352	16704
2	6572	3.36896	16740
2	6582	3.3744	16776
2	6592	3.37984	16812
2	6602	3.38528	16848
2	6612	3.39072	16884
2	6622	3.39616	16920
2	6645	3.4016	16956
2	6655	3.40704	16992
2	6665	3.41248	17028
2	6675	3.41792	17064
2	6685	3.42336	17100
2	6695	3.4288	17136
2	6705	3.43424	17172
2	6715	3.43968	17208
2	6725	3.44512	17244
2	6741	3.45056	17280
2	6751	3.456	17316
2	6761	3.46144	17352
2	6771	3.46688	17388
2	6781	3.47232	17424
2	6791	3.47776	17460
2	6801	3.4832	17496
2	6811	3.48864	17532
2	6821	3.49408	17568
2	6831	3.49952	17604
2	6854	3.50496	17640
2	6864	3.5104	17676
2	6874	3.51584	17712
2	6884	3.52128	17748
2	6894	3.52672	17784
2	6904	3.53216	17820
2	6914	3.5376	17856
2	6924	3.54304	17892
2	6934	3.54848	17928
2	6950	3.55392	17964
2	6960	3.55936	18000
2	7181	3.56944	18036
2	7191	3.57488	18072
2	7201	3.58032	18108
2	7211	3.58576	18144
2	7221	3.5912	18180
2	7231	3.59664	18216
2	7254	3.60208	18252
2	7264	3.60752	18288
2	7274	3.61296	18324
2	7284	3.6184	18360
2	7294	3.62384	18396
2	7304	3.62928	18432
2	7314	3.63472	18468
2	7324	3.64016	18504
2	7334	3.6456	18540
2	7350	3.65104	18576
2	7360	3.65648	18612
2	7370	3.66192	18648
2	7380	3.66736	18684
2	7390	3.6728	18720
2	7400	3.67824	18756
2	7410	3.68368	18792
2	7420	3.68912	18828
2	7430	3.69456	18864
2	7454	3.7	18900
2	7465	3.70544	18936
2	7475	3.71088	18972
2	7485	3.71632	19008
2	7495	3.72176	19044
2	7505	3.7272	19080
2	7515	3.73264	19116
2	7525	3.73808	19152
2	7535	3.74352	19188
2	7545	3.74896	19224
2	7561	3.7544	19260
2	7571	3.75984	19296
2	7581	3.76528	19332
2	7591	3.77072	19368
2	7601	3.77616	19404
2	7611	3.7816	19440
2	7621	3.78704	19476
2	7631	3.79248	19512
2	7641	3.79792	19548
2	7664	3.80336	19584
2	7674	3.8088	19620
2	7684	3.81424	19656
2	7694	3.81968	19692
2	7704	3.82512	19728
2	7714	3.83056	19764
2	7724	3.836	19800
2	7734	3.84144	19836
2	7744	3.84688	19872
2	7760	3.85232	19908
2	7770	3.85776	19944
2	7780	3.8632	19980
2	7790	3.86864	20016
2	7800	3.87408	20052
2	7810	3.87952	20088
2	7820	3.88496	20124
2	7830	3.8904	20160
2	7840	3.89584	20196
2	7863	3.90128	20232
2	7873	3.90672	20268
2	7883	3.91216	20304
2	7893	3.9176	20340
2	7903	3.92304	20376
2	7913	3.92848	20412
2	7923	3.93392	20448
2	7933	3.93936	20484
2	7943	3.9448	20520
2	7959	3.95024	20556
2	7969	3.95568	20592
2	7979	3.96112	20628
2	7989	3.96656	20664
2	7999	3.972	20700
2	8009	3.97744	20736
2	8019	3.98288	20772
2	8029	3.98832	20808
2	8039	3.99376	20844
2	8049	3.9992	20880
2	8072	4.00464	20916
2	8082	4.01008	20952
2	8092	4.01552	20988
2	8102	4.02096	21024
2	8112	4.0264	21060
2	8122	4.03184	21096
2	8132	4.03728	21132
2	8142	4.04272	21168
2	8152	4.04816	21204
2	8168	4.0536	21240
2	8178	4.05904	21276
2	8188	4.06448	21312
2	8198	4.06992	21348
2	8208	4.07536	21384
2	8218	4.0808	21420
2	8228	4.08624	21456
2	8238	4.09168	21492
2	8248	4.09712	21528
2	8271	4.10256	21564
2	8281	4.108	21600
2	8502	4.11808	21636
2	8512	4.12352	21672
2	8522	4.12896	21708
2	8532	4.1344	21744
2	8542	4.13984	21780
2	8552	4.14528	21816
2	8568	4.15072	21852
2	8578	4.15616	21888
2	8588	4.1616	21924
2	8598	4.16704	21960
2	8608	4.17248	21996
2	8618	4.17792	22032
2	8628	4.18336	22068
2	8638	4.1888	22104
2	8648	4.19424	22140
2	8658	4.19968	22176
2	8681	4.20512	22212
2	8691	4.21056	22248
2	8701	4.216	22284
2	8711	4.22144	22320
2	8721	4.22688	22356
2	8731	4.23232	22392
2	8741	4.23776	22428
2	8751	4.2432	22464
2	8761	4.24864	22500
2	8779	4.25408	22536
2	8789	4.25952	22572
2	8799	4.26496	22608
2	8809	4.2704	22644
2	8819	4.27584	22680
2	8829	4.28128	22716
2	8839	4.28672	22752
2	8849	4.29216	22788
2	8859	4.2976	22824
2	8882	4.30304	22860
2	8892	4.30848	22896
2	8902	4.31392	22932
2	8912	4.31936	22968
2	8922	4.3248	23004
2	8932	4.33024	23040
2	8942	4.33568	23076
2	8952	4.34112	23112
2	8962	4.34656	23148
2	8978	4.352	23184
2	8988	4.35744	23220
2	8998	4.36288	23256
2	9008	4.36832	23292
2	9018	4.37376	23328
2	9028	4.3792	23364
2	9038	4.38464	23400
2	9048	4.39008	23436
2	9058	4.39552	23472
2	9081	4.40096	23508
2	9091	4.4064	23544
2	9101	4.41184	23580
2	9111	4.41728	23616
2	9121	4.42272	23652
2	9131	4.42816	23688
2	9141	4.4336	23724
2	9151	4.43904	23760
2	9161	4.44448	23796
2	9171	4.44992	23832
2	9187	4.45536	23868
2	9197	4.4608	23904
2	9207	4.46624	23940
2	9217	4.47168	23976
2	9227	4.47712	24012
2	9237	4.48256	24048
2	9247	4.488	24084
2	9257	4.49344	24120
2	9267	4.49888	24156
2	9290	4.50432	24192
2	9300	4.50976	24228
2	9310	4.5152	24264
2	9320	4.52064	24300
2	9330	4.52608	24336
2	9340	4.53152	24372
2	9350	4.53696	24408
2	9360	4.5424	24444
2	9370	4.54784	24480
2	9386	4.55328	24516
2	9396	4.55872	24552
2	9406	4.56416	24588
2	9416	4.5696	24624
2	9426	4.57504	24660
2	9436	4.58048	24696
2	9446	4.58592	24732
2	9456	4.59136	24768
2	9466	4.5968	24804
2	9489	4.60224	24840
2	9499	4.60768	24876
2	9509	4.61312	24912
2	9519	4.61856	24948
2	9529	4.624	24984
2	9539	4.62944	25020
2	9549	4.63488	25056
2	9559	4.64032	25092
2	9569	4.64576	25128
2	9585	4.6512	25164
2	9595	4.65664	25200
2	9816	4.66672	25236
2	9826	4.67216	25272
2	9836	4.6776	25308
2	9846	4.68304	25344
2	9856	4.68848	25380
2	9866	4.69392	25416
2	9876	4.69936	25452
2	9899	4.7048	25488
2	9909	4.71024	25524
2	9919	4.71568	25560
2	9929	4.72112	25596
2	9939	4.72656	25632
2	9949	4.732	25668
2	9959	4.73744	25704
2	9969	4.74288	25740
2	9979	4.74832	25776
2	9995	4.75376	25812
2	10005	4.7592	25848
2	10015	4.76464	25884
2	10025	4.77008	25920
2	10035	4.77552	25956
2	10045	4.78096	25992
2	10055	4.7864	26028
2	10065	4.79184	26064
2	10075	4.79728	26100
2	10100	4.80272	26136
2	10110	4.80816	26172
2	10120	4.8136	26208
2	10130	4.81904	26244
2	10140	4.82448	26280
2	10150	4.82992	26316
2	10160	4.83536	26352
2	10170	4.8408	26388
2	10180	4.84624	26424
2	10196	4.85168	26460
2	10206	4.85712	26496
2	10216	4.86256	26532
2	10226	4.868	26568
2	10236	4.87344	26604
2	10246	4.87888	26640
2	10256	4.88432	26676
2	10266	4.88976	26712
2	10276	4.8952	26748
2	10299	4.90064	26784
2	10309	4.90608	26820
2	10319	4.91152	26856
2	10329	4.91696	26892
2	10339	4.9224	26928
2	10349	4.92784	26964
2	10359	4.93328	27000
2	10369	4.93872	27036
2	10379	4.94416	27072
2	10389	4.9496	27108
2	10405	4.95504	27144
2	10415	4.96048	27180
2	10425	4.96592	27216
2	10435	4.97136	27252
2	10445	4.9768	27288
2	10455	4.98224	27324
2	10465	4.98768	27360
2	10475	4.99312	27396
2	10485	4.99856	27432
2	10508	5.004	27468
2	10518	5.00944	27504
2	10528	5.01488	27540
2	10538	5.02032	27576
2	10548	5.02576	27612
2	10558	5.0312	27648
2	10568	5.03664	27684
2	10578	5.04208	27720
2	10588	5.04752	27756
2	10604	5.05296	27792
2	10614	5.0584	27828
2	10624	5.06384	27864
2	10634	5.06928	27900
2	10644	5.07472	27936
2	10654	5.08016	27972
2	10664	5.0856	28008
2	10674	5.09104	28044
2	10684	5.09648	28080
2	10707	5.10192	28116
2	10717	5.10736	28152
2	10727	5.1128	28188
2	10737	5.11824	28224
2	10747	5.12368	28260
2	10757	5.12912	28296
2	10767	5.13456	28332
2	10777	5.14	28368
2	10787	5.14544	28404
2	10803	5.15088	28440
2	10813	5.15632	28476
2	10823	5.16176	28512
2	10833	5.1672	28548
2	10843	5.17264	28584
2	10853	5.17808	28620
2	10863	5.18352	28656
2	10873	5.18896	28692
2	10883	5.1944	28728
2	10893	5.19984	28764
2	10916	5.20528	28800
2	11137	5.21536	28836
2	11147	5.2208	28872
2	11157	5.22624	28908
2	11167	5.23168	28944
2	11177	5.23712	28980
2	11187	5.24256	29016
2	11197	5.248	29052
2	11213	5.25344	29088
2	11223	5.25888	29124
2	11233	5.26432	29160
2	11243	5.26976	29196
2	11253	5.2752	29232
2	11263	5.28064	29268
2	11273	5.28608	29304
2	11283	5.29152	29340
2	11293	5.29696	29376
2	11316	5.3024	29412
2	11326	5.30784	29448
2	11336	5.31328	29484
2	11346	5.31872	29520
2	11356	5.32416	29556
2	11366	5.3296	29592
2	11376	5.33504	29628
2	11386	5.34048	29664
2	11396	5.34592	29700
2	12227	9.71456	29736
2	12228	9.71456	29772
2	12239	9.72	29808
2	12240	9.72	29844
2	12251	9.72544	29880
2	12252	9.72544	29916
2	12263	9.73088	29952
2	12264	9.73088	29988
2	12275	9.73632	30024
2	12276	9.73632	30060
2	12287	9.74176	30096
2	12288	9.74176	30132
2	12299	9.7472	30168
2	12300	9.7472	30204
2	12317	9.75264	30240
2	12318	9.75264	30276
2	12329	9.75808	30312
2	12330	9.75808	30348
2	12341	9.76352	30384
2	12342	9.76352	30420
2	12353	9.76896	30456
2	12354	9.76896	30492
2	12365	9.7744	30528
2	12366	9.7744	30564
2	12377	9.77984	30600
2	12378	9.77984	30636
2	12389	9.78528	30672
2	12390	9.78528	30708
2	12401	9.79072	30744
2	12402	9.79072	30780
2	12413	9.79616	30816
2	12414	9.79616	30852
2	12438	9.8016	30888
2	12439	9.8016	30924
2	12450	9.80704	30960
2	12451	9.80704	30996
2	12462	9.81248	31032
2	12463	9.81248	31068
2	12474	9.81792	31104
2	12475	9.81792	31140
2	12486	9.82336	31176
2	12487	9.82336	31212
2	12498	9.8288	31248
2	12499	9.8288	31284
2	12510	9.83424	31320
2	12511	9.83424	31356
2	12522	9.83968	31392
2	12523	9.83968	31428
2	12534	9.84512	31464
2	12535	9.84512	31500
2	12552	9.85056	31536
2	12553	9.85056	31572
2	12564	9.856	31608
2	12565	9.856	31644
2	12576	9.86144	31680
2	12577	9.86144	31716
2	12588	9.86688	31752
2	12589	9.86688	31788
2	12600	9.87232	31824
2	12601	9.87232	31860
2	12612	9.87776	31896
2	12613	9.87776	31932
2	12624	9.8832	31968
2	12625	9.8832	32004
2	12636	9.88864	32040
2	12637	9.88864	32076
2	12648	9.89408	32112
2	12649	9.89408	32148
2	12660	9.89952	32184
2	12661	9.89952	32220
2	12689	9.90496	32256
2	12690	9.90496	32292
2	12701	9.9104	32328
2	12702	9.9104	32364
2	12713	9.91584	32400
2	12714	9.91584	32436
2	12725	9.92128	32472
2	12726	9.92128	32508
2	12737	9.92672	32544
2	12738	9.92672	32580
2	12749	9.93216	32616
2	12750	9.93216	32652
2	12761	9.9376	32688
2	12762	9.9376	32724
2	12773	9.94304	32760
2	12774	9.94304	32796
2	12785	9.94848	32832
2	12786	9.94848	32868
2	12803	9.95392	32904
2	12804	9.95392	32940
2	12815	9.95936	32976
2	12816	9.95936	33012
2	12827	9.9648	33048
2	12828	9.9648	33084
2	12839	9.97024	33120
2	12840	9.97024	33156
2	12851	9.97568	33192
2	12852	9.97568	33228
2	12863	9.98112	33264
2	12864	9.98112	33300
2	12875	9.98656	33336
2	12876	9.98656	33372
2	12887	9.992	33408
2	12888	9.992	33444
2	12899	9.99744	33480
2	12900	9.99744	33516
3	645	1.11456	36
3	655	1.12	72
3	665	1.12544	108
3	675	1.13088	144
3	685	1.13632	180
3	695	1.14176	216
3	705	1.1472	252
3	721	1.15264	288
3	731	1.15808	324
3	741	1.16352	360
3	751	1.16896	396
3	761	1.1744	432
3	771	1.17984	468
3	781	1.18528	504
3	791	1.19072	540
3	801	1.19616	576
3	824	1.2016	612
3	834	1.20704	648
3	844	1.21248	684
3	854	1.21792	720
3	864	1.22336	756
3	874	1.2288	792
3	884	1.23424	828
3	894	1.23968	864
3	904	1.24512	900
3	920	1.25056	936
3	930	1.256	972
3	940	1.26144	1008
3	950	1.26688	1044
3	960	1.27232	1080
3	970	1.27776	1116
3	980	1.2832	1152
3	990	1.28864	1188
3	1000	1.29408	1224
3	1010	1.29952	1260
3	1033	1.30496	1296
3	1043	1.3104	1332
3	1053	1.31584	1368
3	1063	1.32128	1404
3	1073	1.32672	1440
3	1083	1.33216	1476
3	1093	1.3376	1512
3	1103	1.34304	1548
3	1113	1.34848	1584
3	1133	1.35392	1620
3	1150	1.35936	1656
3	1160	1.3648	1692
3	1170	1.37024	1728
3	1180	1.37568	1764
3	1190	1.38112	1800
3	1200	1.38656	1836
3	1210	1.392	1872
3	1220	1.39744	1908
3	1243	1.40288	1944
3	1253	1.40832	1980
3	1263	1.41376	2016
3	1273	1.4192	2052
3	1283	1.42464	2088
3	1293	1.43008	2124
3	1303	1.43552	2160
3	1313	1.44096	2196
3	1323	1.4464	2232
3	1339	1.45184	2268
3	1349	1.45728	2304
3	1359	1.46272	2340
3	1369	1.46816	2376
3	1379	1.4736	2412
3	1389	1.47904	2448
3	1399	1.48448	2484
3	1409	1.48992	2520
3	1419	1.49536	2556
3	1442	1.5008	2592
3	1452	1.50624	2628
3	1462	1.51168	2664
3	1472	1.51712	2700
3	1482	1.52256	2736
3	1492	1.528	2772
3	1502	1.53344	2808
3	1512	1.53888	2844
3	1522	1.54432	2880
3	1532	1.54976	2916
3	1550	1.5552	2952
3	1560	1.56064	2988
3	1570	1.56608	3024
3	1580	1.57152	3060
3	1590	1.57696	3096
3	1600	1.5824	3132
3	1610	1.58784	3168
3	1620	1.59328	3204
3	1630	1.59872	3240
3	1653	1.60416	3276
3	1663	1.6096	3312
3	1673	1.61504	3348
3	1683	1.62048	3384
3	1693	1.62592	3420
3	1703	1.63136	3456
3	1713	1.6368	3492
3	1723	1.64224	3528
3	1733	1.64768	3564
3	1749	1.65312	3600
3	2181	1.66768	3636
3	2187	1.67216	3672
3	2193	1.67312	3708
3	2199	1.6776	3744
3	2205	1.67856	3780
3	2211	1.68304	3816
3	2217	1.684	3852
3	2223	1.68848	3888
3	2229	1.68944	3924
3	2235	1.69392	3960
3	2241	1.69488	3996
3	2247	1.69936	4032
3	2266	1.70032	4068
3	2272	1.7048	4104
3	2278	1.70576	4140
3	2284	1.71024	4176
3	2290	1.7112	4212
3	2296	1.71568	4248
3	2302	1.71664	4284
3	2308	1.72112	4320
3	2314	1.72208	4356
3	2320	1.72656	4392
3	2326	1.72752	4428
3	2332	1.732	4464
3	2338	1.73296	4500
3	2344	1.73744	4536
3	2350	1.7384	4572
3	2356	1.74288	4608
3	2362	1.74384	4644
3	2368	1.74832	4680
3	2374	1.74928	4716
3	2386	1.75376	4752
3	2392	1.75472	4788
3	2398	1.7592	4824
3	2404	1.76016	4860
3	2410	1.76464	4896
3	2416	1.7656	4932
3	2422	1.77008	4968
3	2428	1.77104	5004
3	2434	1.77552	5040
3	2440	1.77648	5076
3	2446	1.78096	5112
3	2452	1.78192	5148
3	2458	1.7864	5184
3	2464	1.78736	5220
3	2470	1.79184	5256
3	2476	1.7928	5292
3	2482	1.79728	5328
3	2488	1.79824	5364
3	2509	1.80272	5400
3	2515	1.80368	5436
3	2521	1.80816	5472
3	2527	1.80912	5508
3	2533	1.8136	5544
3	2539	1.81456	5580
3	2545	1.81904	5616
3	2551	1.82	5652
3	2557	1.82448	5688
3	2563	1.82544	5724
3	2569	1.82992	5760
3	2575	1.83088	5796
3	2581	1.83536	5832
3	2587	1.83632	5868
3	2593	1.8408	5904
3	2599	1.84176	5940
3	2605	1.84624	5976
3	2611	1.8472	6012
3	2623	1.85168	6048
3	2629	1.85264	6084
3	2635	1.85712	6120
3	2641	1.85808	6156
3	2647	1.86256	6192
3	2653	1.86352	6228
3	2659	1.868	6264
3	2665	1.86896	6300
3	2671	1.87344	6336
3	2677	1.8744	6372
3	2683	1.87888	6408
3	2689	1.87984	6444
3	2695	1.88432	6480
3	2701	1.88528	6516
3	2707	1.88976	6552
3	2713	1.89072	6588
3	2719	1.8952	6624
3	2725	1.89616	6660
3	2744	1.90064	6696
3	2750	1.9016	6732
3	2756	1.90608	6768
3	2762	1.90704	6804
3	2768	1.91152	6840
3	2774	1.91248	6876
3	2780	1.91696	6912
3	2786	1.91792	6948
3	2792	1.9224	6984
3	2798	1.92336	7020
3	2804	1.92784	7056
3	2810	1.9288	7092
3	2816	1.93328	7128
3	2822	1.93424	7164
3	2828	1.93872	7200
3	2834	1.93968	7236
3	2840	1.94416	7272
3	2846	1.94512	7308
3	2852	1.9496	7344
3	2864	1.95056	7380
3	2870	1.95504	7416
3	2876	1.956	7452
3	2882	1.96048	7488
3	2888	1.96144	7524
3	2894	1.96592	7560
3	2900	1.96688	7596
3	2906	1.97136	7632
3	2912	1.97232	7668
3	2918	1.9768	7704
3	2924	1.97776	7740
3	2930	1.98224	7776
3	2936	1.9832	7812
3	2942	1.98768	7848
3	2948	1.98864	7884
3	2954	1.99312	7920
3	2960	1.99408	7956
3	2966	1.99856	7992
3	2972	1.99952	8028
3	2991	2.004	8064
3	2997	2.00496	8100
3	3003	2.00944	8136
3	3009	2.0104	8172
3	3015	2.01488	8208
3	3021	2.01584	8244
3	3027	2.02032	8280
3	3033	2.02128	8316
3	3039	2.02576	8352
3	3045	2.02672	8388
3	3051	2.0312	8424
3	3057	2.03216	8460
3	3063	2.03664	8496
3	3069	2.0376	8532
3	3075	2.04208	8568
3	3081	2.04304	8604
3	3087	2.04752	8640
3	3093	2.04848	8676
3	3105	2.05296	8712
3	3111	2.05392	8748
3	3117	2.0584	8784
3	3123	2.05936	8820
3	3129	2.06384	8856
3	3135	2.0648	8892
3	3141	2.06928	8928
3	3147	2.07024	8964
3	3153	2.07472	9000
3	3159	2.07568	9036
3	3165	2.08016	9072
3	3171	2.08112	9108
3	3177	2.0856	9144
3	3183	2.08656	9180
3	3189	2.09104	9216
3	3195	2.092	9252
3	3201	2.09648	9288
3	3207	2.09744	9324
3	3226	2.10192	9360
3	3232	2.10288	9396
3	3238	2.10736	9432
3	3244	2.10832	9468
3	3250	2.1128	9504
3	3256	2.11376	9540
3	3262	2.11824	9576
3	3268	2.1192	9612
3	3274	2.12368	9648
3	3280	2.12464	9684
3	3286	2.12912	9720
3	3292	2.13008	9756
3	3298	2.13456	9792
3	3304	2.13552	9828
3	3310	2.14	9864
3	3316	2.14096	9900
3	3322	2.14544	9936
3	3328	2.1464	9972
3	3340	2.15088	10008
3	3346	2.15184	10044
3	3352	2.15632	10080
3	3358	2.15728	10116
3	3364	2.16176	10152
3	3370	2.16272	10188
3	3376	2.1672	10224
3	3382	2.16816	10260
3	3388	2.17264	10296
3	3394	2.1736	10332
3	3400	2.17808	10368
3	3406	2.17904	10404
3	3412	2.18352	10440
3	3418	2.18448	10476
3	3424	2.18896	10512
3	3430	2.18992	10548
3	3436	2.1944	10584
3	3442	2.19536	10620
3	3448	2.19984	10656
3	3467	2.2008	10692
3	3473	2.20528	10728
3	3479	2.20624	10764
3	3485	2.21072	10800
3	4548	2.47216	10836
3	4558	2.4776	10872
3	4568	2.48304	10908
3	4578	2.48848	10944
3	4588	2.49392	10980
3	4598	2.49936	11016
3	4621	2.5048	11052
3	4631	2.51024	11088
3	4641	2.51568	11124
3	4651	2.52112	11160
3	4661	2.52656	11196
3	4671	2.532	11232
3	4681	2.53744	11268
3	4691	2.54288	11304
3	4701	2.54832	11340
3	4717	2.55376	11376
3	4727	2.5592	11412
3	4737	2.56464	11448
3	4747	2.57008	11484
3	4757	2.57552	11520
3	4767	2.58096	11556
3	4777	2.5864	11592
3	4787	2.59184	11628
3	4797	2.59728	11664
3	4820	2.60272	11700
3	4830	2.60816	11736
3	4840	2.6136	11772
3	4850	2.61904	11808
3	4860	2.62448	11844
3	4870	2.62992	11880
3	4880	2.63536	11916
3	4890	2.6408	11952
3	4900	2.64624	11988
3	4916	2.65168	12024
3	4926	2.65712	12060
3	4936	2.66256	12096
3	4946	2.668	12132
3	4956	2.67344	12168
3	4966	2.67888	12204
3	4976	2.68432	12240
3	4986	2.68976	12276
3	4996	2.6952	12312
3	5019	2.70064	12348
3	5029	2.70608	12384
3	5039	2.71152	12420
3	5049	2.71696	12456
3	5059	2.7224	12492
3	5069	2.72784	12528
3	5079	2.73328	12564
3	5089	2.73872	12600
3	5099	2.74416	12636
3	5109	2.7496	12672
3	5125	2.75504	12708
3	5135	2.76048	12744
3	5145	2.76592	12780
3	5155	2.77136	12816
3	5165	2.7768	12852
3	5175	2.78224	12888
3	5185	2.78768	12924
3	5195	2.79312	12960
3	5205	2.79856	12996
3	5228	2.804	13032
3	5238	2.80944	13068
3	5248	2.81488	13104
3	5258	2.82032	13140
3	5268	2.82576	13176
3	5278	2.8312	13212
3	5288	2.83664	13248
3	5298	2.84208	13284
3	5308	2.84752	13320
3	5324	2.85296	13356
3	5334	2.8584	13392
3	5344	2.86384	13428
3	5354	2.86928	13464
3	5364	2.87472	13500
3	5374	2.88016	13536
3	5384	2.8856	13572
3	5394	2.89104	13608
3	5404	2.89648	13644
3	5427	2.90192	13680
3	5437	2.90736	13716
3	5447	2.9128	13752
3	5457	2.91824	13788
3	5467	2.92368	13824
3	5477	2.92912	13860
3	5487	2.93456	13896
3	5497	2.94	13932
3	5507	2.94544	13968
3	5523	2.95088	14004
3	5533	2.95632	14040
3	5543	2.96176	14076
3	5553	2.9672	14112
3	5563	2.97264	14148
3	5573	2.97808	14184
3	5583	2.98352	14220
3	5593	2.98896	14256
3	5603	2.9944	14292
3	5613	2.99984	14328
3	5636	3.00528	14364
3	5646	3.01072	14400
3	5867	3.0208	14436
3	5877	3.02624	14472
3	5887	3.03168	14508
3	5897	3.03712	14544
3	5907	3.04256	14580
3	5917	3.048	14616
3	5933	3.05344	14652
3	5943	3.05888	14688
3	5953	3.06432	14724
3	5963	3.06976	14760
3	5973	3.0752	14796
3	5983	3.08064	14832
3	5993	3.08608	14868
3	6003	3.09152	14904
3	6013	3.09696	14940
3	6036	3.1024	14976
3	6046	3.10784	15012
3	6056	3.11328	15048
3	6066	3.11872	15084
3	6076	3.12416	15120
3	6086	3.1296	15156
3	6096	3.13504	15192
3	6106	3.14048	15228
3	6116	3.14592	15264
3	6134	3.15136	15300
3	6144	3.1568	15336
3	6154	3.16224	15372
3	6164	3.16768	15408
3	6174	3.17312	15444
3	6184	3.17856	15480
3	6194	3.184	15516
3	6204	3.18944	15552
3	6214	3.19488	15588
3	6237	3.20032	15624
3	6247	3.20576	15660
3	6257	3.2112	15696
3	6267	3.21664	15732
3	6277	3.22208	15768
3	6287	3.22752	15804
3	6297	3.23296	15840
3	6307	3.2384	15876
3	6317	3.24384	15912
3	6327	3.24928	15948
3	6343	3.25472	15984
3	6353	3.26016	16020
3	6363	3.2656	16056
3	6373	3.27104	16092
3	6383	3.27648	16128
3	6393	3.28192	16164
3	6403	3.28736	16200
3	6413	3.2928	16236
3	6423	3.29824	16272
3	6446	3.30368	16308
3	6456	3.30912	16344
3	6466	3.31456	16380
3	6476	3.32	16416
3	6486	3.32544	16452
3	6496	3.33088	16488
3	6506	3.33632	16524
3	6516	3.34176	16560
3	6526	3.3472	16596
3	6542	3.35264	16632
3	6552	3.35808	16668
3	6562	3.36352	16704
3	6572	3.36896	16740
3	6582	3.3744	16776
3	6592	3.37984	16812
3	6602	3.38528	16848
3	6612	3.39072	16884
3	6622	3.39616	16920
3	6645	3.4016	16956
3	6655	3.40704	16992
3	6665	3.41248	17028
3	6675	3.41792	17064
3	6685	3.42336	17100
3	6695	3.4288	17136
3	6705	3.43424	17172
3	6715	3.43968	17208
3	6725	3.44512	17244
3	6741	3.45056	17280
3	6751	3.456	17316
3	6761	3.46144	17352
3	6771	3.46688	17388
3	6781	3.47232	17424
3	6791	3.47776	17460
3	6801	3.4832	17496
3	6811	3.48864	17532
3	6821	3.49408	17568
3	6831	3.49952	17604
3	6854	3.50496	17640
3	6864	3.5104	17676
3	6874	3.51584	17712
3	6884	3.52128	17748
3	6894	3.52672	17784
3	6904	3.53216	17820
3	6914	3.5376	17856
3	6924	3.54304	17892
3	6934	3.54848	17928
3	6950	3.55392	17964
3	6960	3.55936	18000
3	7181	3.56944	18036
3	7191	3.57488	18072
3	7201	3.58032	18108
3	7211	3.58576	18144
3	7221	3.5912	18180
3	7231	3.59664	18216
3	7254	3.60208	18252
3	7264	3.60752	18288
3	7274	3.61296	18324
3	7284	3.6184	18360
3	7294	3.62384	18396
3	7304	3.62928	18432
3	7314	3.63472	18468
3	7324	3.64016	18504
3	7334	3.6456	18540
3	7350	3.65104	18576
3	7360	3.65648	18612
3	7370	3.66192	18648
3	7380	3.66736	18684
3	7390	3.6728	18720
3	7400	3.67824	18756
3	7410	3.68368	18792
3	7420	3.68912	18828
3	7430	3.69456	18864
3	7454	3.7	18900
3	7465	3.70544	18936
3	7475	3.71088	18972
3	7485	3.71632	19008
3	7495	3.72176	19044
3	7505	3.7272	19080
3	7515	3.73264	19116
3	7525	3.73808	19152
3	7535	3.74352	19188
3	7545	3.74896	19224
3	7561	3.7544	19260
3	7571	3.75984	19296
3	7581	3.76528	19332
3	7591	3.77072	19368
3	7601	3.77616	19404
3	7611	3.7816	19440
3	7621	3.78704	19476
3	7631	3.79248	19512
3	7641	3.79792	19548
3	7664	3.80336	19584
3	7674	3.8088	19620
3	7684	3.81424	19656
3	7694	3.81968	19692
3	7704	3.82512	19728
3	7714	3.83056	19764
3	7724	3.836	19800
3	7734	3.84144	19836
3	7744	3.84688	19872
3	7760	3.85232	19908
3	7770	3.85776	19944
3	7780	3.8632	19980
3	7790	3.86864	20016
3	7800	3.87408	20052
3	7810	3.87952	20088
3	7820	3.88496	20124
3	7830	3.8904	20160
3	7840	3.89584	20196
3	7863	3.90128	20232
3	7873	3.90672	20268
3	7883	3.91216	20304
3	7893	3.9176	20340
3	7903	3.92304	20376
3	7913	3.92848	20412
3	7923	3.93392	20448
3	7933	3.93936	20484
3	7943	3.9448	20520
3	7959	3.95024	20556
3	7969	3.95568	20592
3	7979	3.96112	20628
3	7989	3.96656	20664
3	7999	3.972	20700
3	8009	3.97744	20736
3	8019	3.98288	20772
3	8029	3.98832	20808
3	8039	3.99376	20844
3	8049	3.9992	20880
3	8072	4.00464	20916
3	8082	4.01008	20952
3	8092	4.01552	20988
3	8102	4.02096	21024
3	8112	4.0264	21060
3	8122	4.03184	21096
3	8132	4.03728	21132
3	8142	4.04272	21168
3	8152	4.04816	21204
3	8168	4.0536	21240
3	8178	4.05904	21276
3	8188	4.06448	21312
3	8198	4.06992	21348
3	8208	4.07536	21384
3	8218	4.0808	21420
3	8228	4.08624	21456
3	8238	4.09168	21492
3	8248	4.09712	21528
3	8271	4.10256	21564
3	8281	4.108	21600
3	8502	4.11808	21636
3	8512	4.12352	21672
3	8522	4.12896	21708
3	8532	4.1344	21744
3	8542	4.13984	21780
3	8552	4.14528	21816
3	8568	4.15072	21852
3	8578	4.15616	21888
3	8588	4.1616	21924
3	8598	4.16704	21960
3	8608	4.17248	21996
3	8618	4.17792	22032
3	8628	4.18336	22068
3	8638	4.1888	22104
3	8648	4.19424	22140
3	8658	4.19968	22176
3	8681	4.20512	22212
3	8691	4.21056	22248
3	8701	4.216	22284
3	8711	4.22144	22320
3	8721	4.22688	22356
3	8731	4.23232	22392
3	8741	4.23776	22428
3	8751	4.2432	22464
3	8761	4.24864	22500
3	8779	4.25408	22536
3	8789	4.25952	22572
3	8799	4.26496	22608
3	8809	4.2704	22644
3	8819	4.27584	22680
3	8829	4.28128	22716
3	8839	4.28672	22752
3	8849	4.29216	22788
3	8859	4.2976	22824
3	8882	4.30304	22860
3	8892	4.30848	22896
3	8902	4.31392	22932
3	8912	4.31936	22968
3	8922	4.3248	23004
3	8932	4.33024	23040
3	8942	4.33568	23076
3	8952	4.34112	23112
3	8962	4.34656	23148
3	8978	4.352	23184
3	8988	4.35744	23220
3	8998	4.36288	23256
3	9008	4.36832	23292
3	9018	4.37376	23328
3	9028	4.3792	23364
3	9038	4.38464	23400
3	9048	4.39008	23436
3	9058	4.39552	23472
3	9081	4.40096	23508
3	9091	4.4064	23544
3	9101	4.41184	23580
3	9111	4.41728	23616
3	9121	4.42272	23652
3	9131	4.42816	23688
3	9141	4.4336	23724
3	9151	4.43904	23760
3	9161	4.44448	23796
3	9171	4.44992	23832
3	9187	4.45536	23868
3	9197	4.4608	23904
3	9207	4.46624	23940
3	9217	4.47168	23976
3	9227	4.47712	24012
3	9237	4.48256	24048
3	9247	4.488	24084
3	9257	4.49344	24120
3	9267	4.49888	24156
3	9290	4.50432	24192
3	9300	4.50976	24228
3	9310	4.5152	24264
3	9320	4.52064	24300
3	9330	4.52608	24336
3	9340	4.53152	24372
3	9350	4.53696	24408
3	9360	4.5424	24444
3	9370	4.54784	24480
3	9386	4.55328	24516
3	9396	4.55872	24552
3	9406	4.56416	24588
3	9416	4.5696	24624
3	9426	4.57504	24660
3	9436	4.58048	24696
3	9446	4.58592	24732
3	9456	4.59136	24768
3	9466	4.5968	24804
3	9489	4.60224	24840
3	9499	4.60768	24876
3	9509	4.61312	24912
3	9519	4.61856	24948
3	9529	4.624	24984
3	9539	4.62944	25020
3	9549	4.63488	25056
3	9559	4.64032	25092
3	9569	4.64576	25128
3	9585	4.6512	25164
3	9595	4.65664	25200
3	9816	4.66672	25236
3	9826	4.67216	25272
3	9836	4.6776	25308
3	9846	4.68304	25344
3	9856	4.68848	25380
3	9866	4.69392	25416
3	9876	4.69936	25452
3	9899	4.7048	25488
3	9909	4.71024	25524
3	9919	4.71568	25560
3	9929	4.72112	25596
3	9939	4.72656	25632
3	9949	4.732	25668
3	9959	4.73744	25704
3	9969	4.74288	25740
3	9979	4.74832	25776
3	9995	4.75376	25812
3	10005	4.7592	25848
3	10015	4.76464	25884
3	10025	4.77008	25920
3	10035	4.77552	25956
3	10045	4.78096	25992
3	10055	4.7864	26028
3	10065	4.79184	26064
3	10075	4.79728	26100
3	10100	4.80272	26136
3	10110	4.80816	26172
3	10120	4.8136	26208
3	10130	4.81904	26244
3	10140	4.82448	26280
3	10150	4.82992	26316
3	10160	4.83536	26352
3	10170	4.8408	26388
3	10180	4.84624	26424
3	10196	4.85168	26460
3	10206	4.85712	26496
3	10216	4.86256	26532
3	10226	4.868	26568
3	10236	4.87344	26604
3	10246	4.87888	26640
3	10256	4.88432	26676
3	10266	4.88976	26712
3	10276	4.8952	26748
3	10299	4.90064	26784
3	10309	4.90608	26820
3	10319	4.91152	26856
3	10329	4.91696	26892
3	10339	4.9224	26928
3	10349	4.92784	26964
3	10359	4.93328	27000
3	10369	4.93872	27036
3	10379	4.94416	27072
3	10389	4.9496	27108
3	10405	4.95504	27144
3	10415	4.96048	27180
3	10425	4.96592	27216
3	10435	4.97136	27252
3	10445	4.9768	27288
3	10455	4.98224	27324
3	10465	4.98768	27360
3	10475	4.99312	27396
3	10485	4.99856	27432
3	10508	5.004	27468
3	10518	5.00944	27504
3	10528	5.01488	27540
3	10538	5.02032	27576
3	10548	5.02576	27612
3	10558	5.0312	27648
3	10568	5.03664	27684
3	10578	5.04208	27720
3	10588	5.04752	27756
3	10604	5.05296	27792
3	10614	5.0584	27828
3	10624	5.06384	27864
3	10634	5.06928	27900
3	10644	5.07472	27936
3	10654	5.08016	27972
3	10664	5.0856	28008
3	10674	5.09104	28044
3	10684	5.09648	28080
3	10707	5.10192	28116
3	10717	5.10736	28152
3	10727	5.1128	28188
3	10737	5.11824	28224
3	10747	5.12368	28260
3	10757	5.12912	28296
3	10767	5.13456	28332
3	10777	5.14	28368
3	10787	5.14544	28404
3	10803	5.15088	28440
3	10813	5.15632	28476
3	10823	5.16176	28512
3	10833	5.1672	28548
3	10843	5.17264	28584
3	10853	5.17808	28620
3	10863	5.18352	28656
3	10873	5.18896	28692
3	10883	5.1944	28728
3	10893	5.19984	28764
3	10916	5.20528	28800
3	11137	5.21536	28836
3	11147	5.2208	28872
3	11157	5.22624	28908
3	11167	5.23168	28944
3	11177	5.23712	28980
3	11187	5.24256	29016
3	11197	5.248	29052
3	11213	5.25344	29088
3	11223	5.25888	29124
3	11233	5.26432	29160
3	11243	5.26976	29196
3	11253	5.2752	29232
3	11263	5.28064	29268
3	11273	5.28608	29304
3	11283	5.29152	29340
3	11293	5.29696	29376
3	11316	5.3024	29412
3	11326	5.30784	29448
3	11336	5.31328	29484
3	11346	5.31872	29520
3	11356	5.32416	29556
3	11366	5.3296	29592
3	11376	5.33504	29628
3	11386	5.34048	29664
3	11396	5.34592	29700
3	12227	9.71456	29736
3	12228	9.71456	29772
3	12239	9.72	29808
3	12240	9.72	29844
3	12251	9.72544	29880
3	12252	9.72544	29916
3	12263	9.73088	29952
3	12264	9.73088	29988
3	12275	9.73632	30024
3	12276	9.73632	30060
3	12287	9.74176	30096
3	12288	9.74176	30132
3	12299	9.7472	30168
3	12300	9.7472	30204
3	12317	9.75264	30240
3	12318	9.75264	30276
3	12329	9.75808	30312
3	12330	9.75808	30348
3	12341	9.76352	30384
3	12342	9.76352	30420
3	12353	9.76896	30456
3	12354	9.76896	30492
3	12365	9.7744	30528
3	12366	9.7744	30564
3	12377	9.77984	30600
3	12378	9.77984	30636
3	12389	9.78528	30672
3	12390	9.78528	30708
3	12401	9.79072	30744
3	12402	9.79072	30780
3	12413	9.79616	30816
3	12414	9.79616	30852
3	12438	9.8016	30888
3	12439	9.8016	30924
3	12450	9.80704	30960
3	12451	9.80704	30996
3	12462	9.81248	31032
3	12463	9.81248	31068
3	12474	9.81792	31104
3	12475	9.81792	31140
3	12486	9.82336	31176
3	12487	9.82336	31212
3	12498	9.8288	31248
3	12499	9.8288	31284
3	12510	9.83424	31320
3	12511	9.83424	31356
3	12522	9.83968	31392
3	12523	9.83968	31428
3	12534	9.84512	31464
3	12535	9.84512	31500
3	12552	9.85056	31536
3	12553	9.85056	31572
3	12564	9.856	31608
3	12565	9.856	31644
3	12576	9.86144	31680
3	12577	9.86144	31716
3	12588	9.86688	31752
3	12589	9.86688	31788
3	12600	9.87232	31824
3	12601	9.87232	31860
3	12612	9.87776	31896
3	12613	9.87776	31932
3	12624	9.8832	31968
3	12625	9.8832	32004
3	12636	9.88864	32040
3	12637	9.88864	32076
3	12648	9.89408	32112
3	12649	9.89408	32148
3	12660	9.89952	32184
3	12661	9.89952	32220
3	12689	9.90496	32256
3	12690	9.90496	32292
3	12701	9.9104	32328
3	12702	9.9104	32364
3	12713	9.91584	32400
3	12714	9.91584	32436
3	12725	9.92128	32472
3	12726	9.92128	32508
3	12737	9.92672	32544
3	12738	9.92672	32580
3	12749	9.93216	32616
3	12750	9.93216	32652
3	12761	9.9376	32688
3	12762	9.9376	32724
3	12773	9.94304	32760
3	12774	9.94304	32796
3	12785	9.94848	32832
3	12786	9.94848	32868
3	12803	9.95392	32904
3	12804	9.95392	32940
3	12815	9.95936	32976
3	12816	9.95936	33012
3	12827	9.9648	33048
3	12828	9.9648	33084
3	12839	9.97024	33120
3	12840	9.97024	33156
3	12851	9.97568	33192
3	12852	9.97568	33228
3	12863	9.98112	33264
3	12864	9.98112	33300
3	12875	9.98656	33336
3	12876	9.98656	33372
3	12887	9.992	33408
3	12888	9.992	33444
3	12899	9.99744	33480
3	12900	9.99744	33516

