version 2
run T1-0-20190908-18:10:01-8285
attr configname T1
attr datetime 20190908-18:10:01
attr experiment T1
attr inifile SimV2.ini
attr iterationvars ""
attr iterationvarsf ""
attr measurement ""
attr network NetworkTormV2
attr processid 8285
attr repetition 0
attr replication #0
attr resultdir results
attr runnumber 0
attr seedset 0
param **.mobility.traceFile "\"paths/T1.movements\""
param **.numNodes 3
param **.wirelessIfc.wirelessRange 25m
param **.bluetoothIfc.wirelessRange 25m
param **.numNodes 2
param **.application.usedRNG 1
param **.application.dataGenerationInterval 1ms
param **.application.dataSizeInBytes 10
param **.application.ttl 999999s
param **application.destinationAddr "\"Wf:00:00:00:00:09\""
param **application.destinationBTAddr "\"Bt:00:00:00:00:09\""
param **application.nodesThatGen true
param **application.nodesGenMsg "\"0\""
param **application.startMultipleMsg true
param **application.numMultipleMsg 100
param **application.hopsListSize 50
param **.routingLayer "\"RoutingLayer\""
param **.routing.maximumCacheSize 5000byte
param **.routing.maximumHopCount 25
param **.routing.useTTL false
param **.neighboring.antiEntropyInterval 200ms
param **.neighboring.maximumRandomBackoffDuration 1s
param **.neighboring.delayPerDataMsg 0.1
param **neighboring.usedRNG 2
param **.neighboring.GWAddr "\"02:00:00:00:00:09\""
param **.neighboring.sendWifiFirst true
param **.neighboring.maxLengthGraph 20
param **.wirelessIfc.wirelessRange 15m
param **.wirelessIfc.neighbourScanInterval 50ms
param **.wirelessIfc.bandwidthBitRate 100000bps
param **.wirelessIfc.wirelessHeaderSize 32byte
param **.wirelessIfc.minSSI -90
param **.bluetoothIfc.wirelessRange 15m
param **.bluetoothIfc.neighbourScanInterval 100ms
param **.bluetoothIfc.bandwidthBitRate 100000bps
param **.bluetoothIfc.wirelessHeaderSize 16byte
param **.bluetoothIfc.minSSI -90
param **.mobilityType "\"BonnMotionMobility\""
param **.mobility.traceFile "\"paths/Moves2.movements\""
param **.mobility.nodeId -1

vector 0 NetworkTormV2 neighbourhoodSize:vector ETV
attr source neighbourhoodSize
vector 1 NetworkTormV2 deliveryRatio:vector ETV
attr source sum(totalDataBytesReceived)/sum(totalDataBytesReceivableByAllNodes)
vector 2 NetworkTormV2 dataBytesReceivedSum:vector ETV
attr source sum(dataBytesReceived)
vector 3 NetworkTormV2 totalBytesReceivedSum:vector ETV
attr source sum(totalBytesReceived)
0	10	0.05	1
0	11	0.05	2
0	12	0.05	1
0	20	0.1	1
0	21	0.1	2
0	22	0.1	1
0	24	0.1	1
0	25	0.1	2
0	26	0.1	1
0	138	0.15	1
0	139	0.15	2
0	140	0.15	1
0	247	0.2	1
0	248	0.2	2
0	249	0.2	1
0	251	0.2	1
0	252	0.2	2
0	253	0.2	1
0	266	0.25	1
0	267	0.25	2
0	268	0.25	1
0	275	0.3	1
0	276	0.3	2
0	277	0.3	1
0	279	0.3	1
0	280	0.3	2
0	281	0.3	1
0	294	0.35	1
0	295	0.35	2
0	296	0.35	1
0	303	0.4	1
0	304	0.4	2
0	305	0.4	1
0	307	0.4	1
0	308	0.4	2
0	309	0.4	1
0	322	0.45	1
0	323	0.45	2
0	324	0.45	1
0	331	0.5	1
0	332	0.5	2
0	333	0.5	1
0	335	0.5	1
0	336	0.5	2
0	337	0.5	1
0	350	0.55	1
0	351	0.55	2
0	352	0.55	1
0	359	0.6	1
0	360	0.6	2
0	361	0.6	1
0	363	0.6	1
0	364	0.6	2
0	365	0.6	1
0	378	0.65	1
0	379	0.65	2
0	380	0.65	1
0	387	0.7	1
0	388	0.7	2
0	389	0.7	1
0	391	0.7	1
0	392	0.7	2
0	393	0.7	1
0	406	0.75	1
0	407	0.75	2
0	408	0.75	1
0	415	0.8	1
0	416	0.8	2
0	417	0.8	1
0	419	0.8	1
0	420	0.8	2
0	421	0.8	1
0	434	0.85	1
0	435	0.85	2
0	436	0.85	1
0	443	0.9	1
0	444	0.9	2
0	445	0.9	1
0	447	0.9	1
0	448	0.9	2
0	449	0.9	1
0	462	0.95	1
0	463	0.95	2
0	464	0.95	1
0	471	1	1
0	472	1	2
0	473	1	1
0	475	1	1
0	476	1	2
0	477	1	1
0	490	1.05	1
0	491	1.05	2
0	492	1.05	1
0	499	1.1	1
0	500	1.1	2
0	501	1.1	1
0	503	1.1	1
0	504	1.1	2
0	505	1.1	1
0	830	1.15	1
0	831	1.15	2
0	832	1.15	1
0	929	1.2	1
0	930	1.2	2
0	931	1.2	1
0	933	1.2	1
0	934	1.2	2
0	935	1.2	1
0	1044	1.25	1
0	1045	1.25	2
0	1046	1.25	1
0	1143	1.3	1
0	1144	1.3	2
0	1145	1.3	1
0	1147	1.3	1
0	1148	1.3	2
0	1149	1.3	1
0	1252	1.35	1
0	1253	1.35	2
0	1254	1.35	1
0	1504	1.4	1
0	1505	1.4	2
0	1506	1.4	1
0	1508	1.4	1
0	1509	1.4	2
0	1510	1.4	1
0	1667	1.45	1
0	1668	1.45	2
0	1669	1.45	1
0	1832	1.5	1
0	1833	1.5	2
0	1834	1.5	1
0	1836	1.5	1
0	1837	1.5	2
0	1838	1.5	1
0	1995	1.55	1
0	1996	1.55	2
0	1997	1.55	1
0	2165	1.6	1
0	2166	1.6	2
0	2167	1.6	1
0	2169	1.6	1
0	2170	1.6	2
0	2171	1.6	1
0	2324	1.65	1
0	2325	1.65	2
0	2326	1.65	1
0	2439	1.7	1
0	2440	1.7	2
0	2441	1.7	1
0	2443	1.7	1
0	2444	1.7	2
0	2445	1.7	1
0	2647	1.75	1
0	2648	1.75	2
0	2649	1.75	1
0	2728	1.8	1
0	2729	1.8	2
0	2730	1.8	1
0	2732	1.8	1
0	2733	1.8	2
0	2734	1.8	1
0	2847	1.85	1
0	2848	1.85	2
0	2849	1.85	1
0	2955	1.9	1
0	2956	1.9	2
0	2957	1.9	1
0	2959	1.9	1
0	2960	1.9	2
0	2961	1.9	1
0	3068	1.95	1
0	3069	1.95	2
0	3070	1.95	1
0	3167	2	1
0	3168	2	2
0	3169	2	1
0	3171	2	1
0	3172	2	2
0	3173	2	1
0	3276	2.05	1
0	3277	2.05	2
0	3278	2.05	1
0	3374	2.1	1
0	3375	2.1	2
0	3376	2.1	1
0	3378	2.1	1
0	3379	2.1	2
0	3380	2.1	1
0	3393	2.15	1
0	3394	2.15	2
0	3395	2.15	1
0	3402	2.2	1
0	3403	2.2	2
0	3404	2.2	1
0	3406	2.2	1
0	3407	2.2	2
0	3408	2.2	1
0	3447	2.25	1
0	3448	2.25	2
0	3449	2.25	1
0	3456	2.3	1
0	3457	2.3	2
0	3458	2.3	1
0	3460	2.3	1
0	3461	2.3	2
0	3462	2.3	1
0	3475	2.35	1
0	3476	2.35	2
0	3477	2.35	1
0	3510	2.4	1
0	3511	2.4	2
0	3512	2.4	1
0	3514	2.4	1
0	3515	2.4	2
0	3516	2.4	1
0	3529	2.45	1
0	3530	2.45	2
0	3531	2.45	1
0	3538	2.5	1
0	3539	2.5	2
0	3540	2.5	1
0	3542	2.5	1
0	3543	2.5	2
0	3544	2.5	1
0	3583	2.55	1
0	3584	2.55	2
0	3585	2.55	1
0	3592	2.6	1
0	3593	2.6	2
0	3594	2.6	1
0	3596	2.6	1
0	3597	2.6	2
0	3598	2.6	1
0	3611	2.65	1
0	3612	2.65	2
0	3613	2.65	1
0	3646	2.7	1
0	3647	2.7	2
0	3648	2.7	1
0	3650	2.7	1
0	3651	2.7	2
0	3652	2.7	1
0	3665	2.75	1
0	3666	2.75	1
0	3667	2.75	0
0	3672	2.8	1
0	3673	2.8	1
0	3674	2.8	0
0	3676	2.8	1
0	3677	2.8	1
0	3678	2.8	0
0	3700	2.85	1
0	3701	2.85	1
0	3702	2.85	0
0	3707	2.9	1
0	3708	2.9	1
0	3709	2.9	0
0	3711	2.9	1
0	3712	2.9	1
0	3713	2.9	0
0	3722	2.95	1
0	3723	2.95	1
0	3724	2.95	0
0	3742	3	1
0	3743	3	1
0	3744	3	0
0	3746	3	1
0	3747	3	1
0	3748	3	0
0	3757	3.05	1
0	3758	3.05	1
0	3759	3.05	0
0	3764	3.1	1
0	3765	3.1	1
0	3766	3.1	0
0	3768	3.1	1
0	3769	3.1	1
0	3770	3.1	0
0	3792	3.15	1
0	3793	3.15	1
0	3794	3.15	0
0	3799	3.2	1
0	3800	3.2	1
0	3801	3.2	0
0	3803	3.2	1
0	3804	3.2	1
0	3805	3.2	0
0	3814	3.25	1
0	3815	3.25	1
0	3816	3.25	0
0	3834	3.3	1
0	3835	3.3	1
0	3836	3.3	0
0	3838	3.3	1
0	3839	3.3	1
0	3840	3.3	0
0	3849	3.35	1
0	3850	3.35	1
0	3851	3.35	0
0	3856	3.4	1
0	3857	3.4	1
0	3858	3.4	0
0	3860	3.4	1
0	3861	3.4	1
0	3862	3.4	0
0	3884	3.45	1
0	3885	3.45	1
0	3886	3.45	0
0	3891	3.5	1
0	3892	3.5	1
0	3893	3.5	0
0	3895	3.5	1
0	3896	3.5	1
0	3897	3.5	0
0	3906	3.55	1
0	3907	3.55	1
0	3908	3.55	0
0	3926	3.6	1
0	3927	3.6	1
0	3928	3.6	0
0	3930	3.6	1
0	3931	3.6	1
0	3932	3.6	0
0	3941	3.65	1
0	3942	3.65	1
0	3943	3.65	0
0	3948	3.7	1
0	3949	3.7	1
0	3950	3.7	0
0	3952	3.7	1
0	3953	3.7	1
0	3954	3.7	0
0	3976	3.75	1
0	3977	3.75	1
0	3978	3.75	0
0	3983	3.8	1
0	3984	3.8	1
0	3985	3.8	0
0	3987	3.8	1
0	3988	3.8	1
0	3989	3.8	0
0	3998	3.85	1
0	3999	3.85	1
0	4000	3.85	0
0	4018	3.9	1
0	4019	3.9	1
0	4020	3.9	0
0	4022	3.9	1
0	4023	3.9	1
0	4024	3.9	0
0	4033	3.95	1
0	4034	3.95	1
0	4035	3.95	0
0	4040	4	1
0	4041	4	1
0	4042	4	0
0	4044	4	1
0	4045	4	1
0	4046	4	0
0	4068	4.05	1
0	4069	4.05	1
0	4070	4.05	0
0	4075	4.1	1
0	4076	4.1	1
0	4077	4.1	0
0	4079	4.1	1
0	4080	4.1	1
0	4081	4.1	0
0	4090	4.15	1
0	4091	4.15	1
0	4092	4.15	0
0	4110	4.2	1
0	4111	4.2	1
0	4112	4.2	0
0	4114	4.2	1
0	4115	4.2	1
0	4116	4.2	0
0	4125	4.25	1
0	4126	4.25	1
0	4127	4.25	0
0	4132	4.3	1
0	4133	4.3	1
0	4134	4.3	0
0	4136	4.3	1
0	4137	4.3	1
0	4138	4.3	0
0	4160	4.35	1
0	4161	4.35	1
0	4162	4.35	0
0	4167	4.4	1
0	4168	4.4	1
0	4169	4.4	0
0	4171	4.4	1
0	4172	4.4	1
0	4173	4.4	0
0	4182	4.45	1
0	4183	4.45	1
0	4184	4.45	0
0	4202	4.5	1
0	4203	4.5	1
0	4204	4.5	0
0	4206	4.5	1
0	4207	4.5	1
0	4208	4.5	0
0	4217	4.55	1
0	4218	4.55	1
0	4219	4.55	0
0	4224	4.6	1
0	4225	4.6	1
0	4226	4.6	0
0	4228	4.6	1
0	4229	4.6	1
0	4230	4.6	0
0	4252	4.65	1
0	4253	4.65	1
0	4254	4.65	0
0	4259	4.7	1
0	4260	4.7	1
0	4261	4.7	0
0	4263	4.7	1
0	4264	4.7	1
0	4265	4.7	0
0	4274	4.75	1
0	4275	4.75	1
0	4276	4.75	0
0	4294	4.8	1
0	4295	4.8	1
0	4296	4.8	0
0	4298	4.8	1
0	4299	4.8	1
0	4300	4.8	0
0	4309	4.85	1
0	4310	4.85	1
0	4311	4.85	0
0	4316	4.9	1
0	4317	4.9	1
0	4318	4.9	0
0	4320	4.9	1
0	4321	4.9	1
0	4322	4.9	0
0	4344	4.95	1
0	4345	4.95	1
0	4346	4.95	0
0	4351	5	1
0	4352	5	1
0	4353	5	0
0	4355	5	1
0	4356	5	1
0	4357	5	0
0	4366	5.05	1
0	4367	5.05	1
0	4368	5.05	0
0	4386	5.1	1
0	4387	5.1	1
0	4388	5.1	0
0	4390	5.1	1
0	4391	5.1	1
0	4392	5.1	0
0	4401	5.15	1
0	4402	5.15	1
0	4403	5.15	0
0	4408	5.2	1
0	4409	5.2	1
0	4410	5.2	0
0	4412	5.2	1
0	4413	5.2	1
0	4414	5.2	0
0	4436	5.25	1
0	4437	5.25	1
0	4438	5.25	0
0	4443	5.3	1
0	4444	5.3	1
0	4445	5.3	0
0	4447	5.3	1
0	4448	5.3	1
0	4449	5.3	0
0	4458	5.35	1
0	4459	5.35	1
0	4460	5.35	0
0	4478	5.4	1
0	4479	5.4	1
0	4480	5.4	0
0	4482	5.4	1
0	4483	5.4	1
0	4484	5.4	0
0	4493	5.45	1
0	4494	5.45	1
0	4495	5.45	0
0	4500	5.5	1
0	4501	5.5	1
0	4502	5.5	0
0	4504	5.5	1
0	4505	5.5	1
0	4506	5.5	0
0	4528	5.55	1
0	4529	5.55	1
0	4530	5.55	0
0	4535	5.6	1
0	4536	5.6	1
0	4537	5.6	0
0	4539	5.6	1
0	4540	5.6	1
0	4541	5.6	0
0	4550	5.65	1
0	4551	5.65	1
0	4552	5.65	0
0	4570	5.7	1
0	4571	5.7	1
0	4572	5.7	0
0	4574	5.7	1
0	4575	5.7	1
0	4576	5.7	0
0	4585	5.75	1
0	4586	5.75	1
0	4587	5.75	0
0	4592	5.8	1
0	4593	5.8	1
0	4594	5.8	0
0	4596	5.8	1
0	4597	5.8	1
0	4598	5.8	0
0	4620	5.85	1
0	4621	5.85	1
0	4622	5.85	0
0	4627	5.9	1
0	4628	5.9	1
0	4629	5.9	0
0	4631	5.9	1
0	4632	5.9	1
0	4633	5.9	0
0	4642	5.95	1
0	4643	5.95	1
0	4644	5.95	0
0	4662	6	1
0	4663	6	1
0	4664	6	0
0	4666	6	1
0	4667	6	1
0	4668	6	0
0	4677	6.05	1
0	4678	6.05	1
0	4679	6.05	0
0	4684	6.1	1
0	4685	6.1	1
0	4686	6.1	0
0	4688	6.1	1
0	4689	6.1	1
0	4690	6.1	0
0	4712	6.15	1
0	4713	6.15	1
0	4714	6.15	0
0	4719	6.2	1
0	4720	6.2	1
0	4721	6.2	0
0	4723	6.2	1
0	4724	6.2	1
0	4725	6.2	0
0	4734	6.25	1
0	4735	6.25	1
0	4736	6.25	0
0	4754	6.3	1
0	4755	6.3	1
0	4756	6.3	0
0	4758	6.3	1
0	4759	6.3	1
0	4760	6.3	0
0	4769	6.35	1
0	4770	6.35	1
0	4771	6.35	0
0	4776	6.4	1
0	4777	6.4	1
0	4778	6.4	0
0	4780	6.4	1
0	4781	6.4	1
0	4782	6.4	0
0	4804	6.45	1
0	4805	6.45	1
0	4806	6.45	0
0	4811	6.5	1
0	4812	6.5	1
0	4813	6.5	0
0	4815	6.5	1
0	4816	6.5	1
0	4817	6.5	0
0	4826	6.55	1
0	4827	6.55	1
0	4828	6.55	0
0	4846	6.6	1
0	4847	6.6	1
0	4848	6.6	0
0	4850	6.6	1
0	4851	6.6	1
0	4852	6.6	0
0	4861	6.65	1
0	4862	6.65	1
0	4863	6.65	0
0	4868	6.7	1
0	4869	6.7	1
0	4870	6.7	0
0	4872	6.7	1
0	4873	6.7	1
0	4874	6.7	0
0	4896	6.75	1
0	4897	6.75	1
0	4898	6.75	0
0	4903	6.8	1
0	4904	6.8	1
0	4905	6.8	0
0	4907	6.8	1
0	4908	6.8	1
0	4909	6.8	0
0	4918	6.85	1
0	4919	6.85	1
0	4920	6.85	0
0	4938	6.9	1
0	4939	6.9	1
0	4940	6.9	0
0	4942	6.9	1
0	4943	6.9	1
0	4944	6.9	0
0	4953	6.95	1
0	4954	6.95	1
0	4955	6.95	0
0	4960	7	1
0	4961	7	1
0	4962	7	0
0	4964	7	1
0	4965	7	1
0	4966	7	0
0	4988	7.05	1
0	4989	7.05	1
0	4990	7.05	0
0	4995	7.1	1
0	4996	7.1	1
0	4997	7.1	0
0	4998	7.1	1
0	4999	7.1	1
0	5000	7.1	0
0	5009	7.15	1
0	5010	7.15	1
0	5011	7.15	0
0	5029	7.2	1
0	5030	7.2	1
0	5031	7.2	0
0	5032	7.2	1
0	5033	7.2	1
0	5034	7.2	0
0	5043	7.25	1
0	5044	7.25	1
0	5045	7.25	0
0	5050	7.3	1
0	5051	7.3	1
0	5052	7.3	0
0	5053	7.3	1
0	5054	7.3	1
0	5055	7.3	0
0	5077	7.35	1
0	5078	7.35	1
0	5079	7.35	0
0	5084	7.4	1
0	5085	7.4	1
0	5086	7.4	0
0	5087	7.4	1
0	5088	7.4	1
0	5089	7.4	0
0	5098	7.45	1
0	5099	7.45	1
0	5100	7.45	0
0	5118	7.5	1
0	5119	7.5	1
0	5120	7.5	0
0	5121	7.5	1
0	5122	7.5	1
0	5123	7.5	0
0	5132	7.55	1
0	5133	7.55	1
0	5134	7.55	0
0	5139	7.6	1
0	5140	7.6	1
0	5141	7.6	0
0	5142	7.6	1
0	5143	7.6	1
0	5144	7.6	0
0	5166	7.65	1
0	5167	7.65	1
0	5168	7.65	0
0	5173	7.7	1
0	5174	7.7	1
0	5175	7.7	0
0	5176	7.7	1
0	5177	7.7	1
0	5178	7.7	0
0	5187	7.75	1
0	5188	7.75	1
0	5189	7.75	0
0	5207	7.8	1
0	5208	7.8	1
0	5209	7.8	0
0	5210	7.8	1
0	5211	7.8	1
0	5212	7.8	0
0	5221	7.85	1
0	5222	7.85	1
0	5223	7.85	0
0	5228	7.9	1
0	5229	7.9	1
0	5230	7.9	0
0	5231	7.9	1
0	5232	7.9	1
0	5233	7.9	0
0	5255	7.95	1
0	5256	7.95	1
0	5257	7.95	0
0	5262	8	1
0	5263	8	1
0	5264	8	0
0	5265	8	1
0	5266	8	1
0	5267	8	0
0	5276	8.05	1
0	5277	8.05	1
0	5278	8.05	0
0	5296	8.1	1
0	5297	8.1	1
0	5298	8.1	0
0	5299	8.1	1
0	5300	8.1	1
0	5301	8.1	0
0	5310	8.15	1
0	5311	8.15	1
0	5312	8.15	0
0	5317	8.2	1
0	5318	8.2	1
0	5319	8.2	0
0	5320	8.2	1
0	5321	8.2	1
0	5322	8.2	0
0	5344	8.25	1
0	5345	8.25	1
0	5346	8.25	0
0	5351	8.3	1
0	5352	8.3	1
0	5353	8.3	0
0	5354	8.3	1
0	5355	8.3	1
0	5356	8.3	0
0	5365	8.35	1
0	5366	8.35	1
0	5367	8.35	0
0	5385	8.4	1
0	5386	8.4	1
0	5387	8.4	0
0	5388	8.4	1
0	5389	8.4	1
0	5390	8.4	0
0	5399	8.45	1
0	5400	8.45	1
0	5401	8.45	0
0	5406	8.5	1
0	5407	8.5	1
0	5408	8.5	0
0	5409	8.5	1
0	5410	8.5	1
0	5411	8.5	0
0	5433	8.55	1
0	5434	8.55	1
0	5435	8.55	0
0	5440	8.6	1
0	5441	8.6	1
0	5442	8.6	0
0	5443	8.6	1
0	5444	8.6	1
0	5445	8.6	0
0	5454	8.65	1
0	5455	8.65	1
0	5456	8.65	0
0	5474	8.7	1
0	5475	8.7	1
0	5476	8.7	0
0	5477	8.7	1
0	5478	8.7	1
0	5479	8.7	0
0	5488	8.75	1
0	5489	8.75	1
0	5490	8.75	0
0	5495	8.8	1
0	5496	8.8	1
0	5497	8.8	0
0	5498	8.8	1
0	5499	8.8	1
0	5500	8.8	0
0	5522	8.85	1
0	5523	8.85	1
0	5524	8.85	0
0	5529	8.9	1
0	5530	8.9	1
0	5531	8.9	0
0	5532	8.9	1
0	5533	8.9	1
0	5534	8.9	0
0	5543	8.95	1
0	5544	8.95	1
0	5545	8.95	0
0	5563	9	1
0	5564	9	1
0	5565	9	0
0	5566	9	1
0	5567	9	1
0	5568	9	0
0	5577	9.05	1
0	5578	9.05	1
0	5579	9.05	0
0	5584	9.1	1
0	5585	9.1	1
0	5586	9.1	0
0	5587	9.1	1
0	5588	9.1	1
0	5589	9.1	0
0	5611	9.15	1
0	5612	9.15	1
0	5613	9.15	0
0	5618	9.2	1
0	5619	9.2	1
0	5620	9.2	0
0	5621	9.2	1
0	5622	9.2	1
0	5623	9.2	0
0	5632	9.25	1
0	5633	9.25	1
0	5634	9.25	0
0	5652	9.3	1
0	5653	9.3	1
0	5654	9.3	0
0	5655	9.3	1
0	5656	9.3	1
0	5657	9.3	0
0	5666	9.35	1
0	5667	9.35	1
0	5668	9.35	0
0	5673	9.4	1
0	5674	9.4	1
0	5675	9.4	0
0	5676	9.4	1
0	5677	9.4	1
0	5678	9.4	0
0	5700	9.45	1
0	5701	9.45	1
0	5702	9.45	0
0	5707	9.5	1
0	5708	9.5	1
0	5709	9.5	0
0	5710	9.5	1
0	5711	9.5	1
0	5712	9.5	0
0	5721	9.55	1
0	5722	9.55	1
0	5723	9.55	0
0	5741	9.6	1
0	5742	9.6	1
0	5743	9.6	0
0	5744	9.6	1
0	5745	9.6	1
0	5746	9.6	0
0	5755	9.65	1
0	5756	9.65	1
0	5757	9.65	0
0	5762	9.7	1
0	5763	9.7	1
0	5764	9.7	0
0	5765	9.7	1
0	5766	9.7	1
0	5767	9.7	0
0	5789	9.75	1
0	5790	9.75	1
0	5791	9.75	0
0	5796	9.8	1
0	5797	9.8	1
0	5798	9.8	0
0	5799	9.8	1
0	5800	9.8	1
0	5801	9.8	0
0	5810	9.85	1
0	5811	9.85	1
0	5812	9.85	0
0	5830	9.9	1
0	5831	9.9	1
0	5832	9.9	0
0	5833	9.9	1
0	5834	9.9	1
0	5835	9.9	0
0	5844	9.95	1
0	5845	9.95	1
0	5846	9.95	0
0	5851	10	1
0	5852	10	1
0	5853	10	0
0	5854	10	1
0	5855	10	1
0	5856	10	0
1	19	0.1	-nan
1	40	0.101	-nan
1	42	0.102	-nan
1	44	0.103	-nan
1	46	0.104	-nan
1	48	0.105	-nan
1	50	0.106	-nan
1	52	0.107	-nan
1	54	0.108	-nan
1	56	0.109	-nan
1	58	0.11	-nan
1	60	0.111	-nan
1	62	0.112	-nan
1	64	0.113	-nan
1	66	0.114	-nan
1	68	0.115	-nan
1	70	0.116	-nan
1	72	0.117	-nan
1	74	0.118	-nan
1	76	0.119	-nan
1	78	0.12	-nan
1	80	0.121	-nan
1	82	0.122	-nan
1	84	0.123	-nan
1	86	0.124	-nan
1	88	0.125	-nan
1	90	0.126	-nan
1	92	0.127	-nan
1	94	0.128	-nan
1	96	0.129	-nan
1	98	0.13	-nan
1	100	0.131	-nan
1	102	0.132	-nan
1	104	0.133	-nan
1	106	0.134	-nan
1	108	0.135	-nan
1	110	0.136	-nan
1	112	0.137	-nan
1	114	0.138	-nan
1	116	0.139	-nan
1	118	0.14	-nan
1	120	0.141	-nan
1	122	0.142	-nan
1	124	0.143	-nan
1	126	0.144	-nan
1	128	0.145	-nan
1	130	0.146	-nan
1	132	0.147	-nan
1	134	0.148	-nan
1	136	0.149	-nan
1	141	0.15	-nan
1	149	0.151	-nan
1	151	0.152	-nan
1	153	0.153	-nan
1	155	0.154	-nan
1	157	0.155	-nan
1	159	0.156	-nan
1	161	0.157	-nan
1	163	0.158	-nan
1	165	0.159	-nan
1	167	0.16	-nan
1	169	0.161	-nan
1	171	0.162	-nan
1	173	0.163	-nan
1	175	0.164	-nan
1	177	0.165	-nan
1	179	0.166	-nan
1	181	0.167	-nan
1	183	0.168	-nan
1	185	0.169	-nan
1	187	0.17	-nan
1	189	0.171	-nan
1	191	0.172	-nan
1	193	0.173	-nan
1	195	0.174	-nan
1	197	0.175	-nan
1	199	0.176	-nan
1	201	0.177	-nan
1	203	0.178	-nan
1	205	0.179	-nan
1	207	0.18	-nan
1	209	0.181	-nan
1	211	0.182	-nan
1	213	0.183	-nan
1	215	0.184	-nan
1	217	0.185	-nan
1	219	0.186	-nan
1	221	0.187	-nan
1	223	0.188	-nan
1	225	0.189	-nan
1	227	0.19	-nan
1	229	0.191	-nan
1	231	0.192	-nan
1	233	0.193	-nan
1	235	0.194	-nan
1	237	0.195	-nan
1	239	0.196	-nan
1	241	0.197	-nan
1	243	0.198	-nan
1	245	0.199	-nan
2	773	1.11904	36
2	783	1.12448	72
2	793	1.12992	108
2	803	1.13536	144
2	813	1.1408	180
2	823	1.14624	216
2	842	1.15168	252
2	852	1.15712	288
2	862	1.16256	324
2	872	1.168	360
2	882	1.17344	396
2	892	1.17888	432
2	902	1.18432	468
2	912	1.18976	504
2	922	1.1952	540
2	951	1.20064	576
2	961	1.20608	612
2	971	1.21152	648
2	981	1.21696	684
2	991	1.2224	720
2	1001	1.22784	756
2	1011	1.23328	792
2	1021	1.23872	828
2	1031	1.24416	864
2	1041	1.2496	900
2	1060	1.25504	936
2	1070	1.26048	972
2	1080	1.26592	1008
2	1090	1.27136	1044
2	1100	1.2768	1080
2	1110	1.28224	1116
2	1120	1.28768	1152
2	1130	1.29312	1188
2	1140	1.29856	1224
2	1169	1.304	1260
2	1179	1.30944	1296
2	1189	1.31488	1332
2	1199	1.32032	1368
2	1209	1.32576	1404
2	1219	1.3312	1440
2	1229	1.33664	1476
2	1239	1.34208	1512
2	1249	1.34752	1548
2	1276	1.35296	1584
2	1296	1.3584	1620
2	1407	1.36384	1656
2	1421	1.36928	1692
2	1427	1.37424	1728
2	1433	1.37472	1764
2	1443	1.37968	1800
2	1449	1.38016	1836
2	1459	1.38512	1872
2	1465	1.3856	1908
2	1475	1.39056	1944
2	1481	1.39104	1980
2	1491	1.396	2016
2	1497	1.39648	2052
2	1526	1.40144	2088
2	1532	1.40192	2124
2	1542	1.40688	2160
2	1548	1.40736	2196
2	1558	1.41232	2232
2	1564	1.4128	2268
2	1574	1.41776	2304
2	1580	1.41824	2340
2	1590	1.4232	2376
2	1596	1.42368	2412
2	1606	1.42864	2448
2	1612	1.42912	2484
2	1622	1.43408	2520
2	1628	1.43456	2556
2	1638	1.43952	2592
2	1644	1.44	2628
2	1654	1.44496	2664
2	1660	1.44544	2700
2	1679	1.4504	2736
2	1685	1.45088	2772
2	1695	1.45584	2808
2	1701	1.45632	2844
2	1711	1.46128	2880
2	1717	1.46176	2916
2	1727	1.46672	2952
2	1733	1.4672	2988
2	1743	1.47216	3024
2	1749	1.47264	3060
2	1759	1.4776	3096
2	1765	1.47808	3132
2	1775	1.48304	3168
2	1781	1.48352	3204
2	1791	1.48848	3240
2	1797	1.48896	3276
2	1807	1.49392	3312
2	1813	1.4944	3348
2	1823	1.49936	3384
2	1829	1.49984	3420
2	1858	1.5048	3456
2	1864	1.50528	3492
2	1874	1.51024	3528
2	1880	1.51072	3564
2	1890	1.51568	3600
2	1896	1.51616	3636
2	1906	1.52112	3672
2	1912	1.5216	3708
2	1922	1.52656	3744
2	1928	1.52704	3780
2	1938	1.532	3816
2	1944	1.53248	3852
2	1954	1.53744	3888
2	1960	1.53792	3924
2	1970	1.54288	3960
2	1976	1.54336	3996
2	1986	1.54832	4032
2	1992	1.5488	4068
2	2017	1.55376	4104
2	2023	1.55424	4140
2	2040	1.5592	4176
2	2046	1.55968	4212
2	2056	1.56464	4248
2	2062	1.56512	4284
2	2072	1.57008	4320
2	2078	1.57056	4356
2	2088	1.57552	4392
2	2094	1.576	4428
2	2104	1.58096	4464
2	2110	1.58144	4500
2	2120	1.5864	4536
2	2126	1.58688	4572
2	2136	1.59184	4608
2	2142	1.59232	4644
2	2152	1.59728	4680
2	2158	1.59776	4716
2	2187	1.60272	4752
2	2193	1.6032	4788
2	2203	1.60816	4824
2	2209	1.60864	4860
2	2219	1.6136	4896
2	2225	1.61408	4932
2	2243	1.61952	4968
2	2257	1.62496	5004
2	2271	1.6304	5040
2	2285	1.63584	5076
2	2299	1.64128	5112
2	2313	1.64672	5148
2	2340	1.65216	5184
2	2354	1.6576	5220
2	2691	1.77824	5256
2	2701	1.78368	5292
2	2711	1.78912	5328
2	2721	1.79456	5364
2	2752	1.8	5400
2	2764	1.80544	5436
2	2774	1.81088	5472
2	2784	1.81632	5508
2	2794	1.82176	5544
2	2804	1.8272	5580
2	2814	1.83264	5616
2	2824	1.83808	5652
2	2834	1.84352	5688
2	2844	1.84896	5724
2	2865	1.8544	5760
2	2882	1.85984	5796
2	2892	1.86528	5832
2	2902	1.87072	5868
2	2912	1.87616	5904
2	2922	1.8816	5940
2	2932	1.88704	5976
2	2942	1.89248	6012
2	2952	1.89792	6048
2	2981	1.90336	6084
2	2991	1.9088	6120
2	3001	1.91424	6156
2	3011	1.91968	6192
2	3021	1.92512	6228
2	3031	1.93056	6264
2	3041	1.936	6300
2	3051	1.94144	6336
2	3061	1.94688	6372
2	3080	1.95232	6408
2	3090	1.95776	6444
2	3100	1.9632	6480
2	3110	1.96864	6516
2	3120	1.97408	6552
2	3130	1.97952	6588
2	3140	1.98496	6624
2	3150	1.9904	6660
2	3160	1.99584	6696
2	3189	2.00128	6732
2	3199	2.00672	6768
2	3209	2.01216	6804
2	3219	2.0176	6840
2	3229	2.02304	6876
2	3239	2.02848	6912
2	3249	2.03392	6948
2	3259	2.03936	6984
2	3269	2.0448	7020
2	3290	2.05024	7056
2	3300	2.05568	7092
2	3310	2.06112	7128
2	3320	2.06656	7164
2	3330	2.072	7200
3	773	1.11904	36
3	783	1.12448	72
3	793	1.12992	108
3	803	1.13536	144
3	813	1.1408	180
3	823	1.14624	216
3	842	1.15168	252
3	852	1.15712	288
3	862	1.16256	324
3	872	1.168	360
3	882	1.17344	396
3	892	1.17888	432
3	902	1.18432	468
3	912	1.18976	504
3	922	1.1952	540
3	951	1.20064	576
3	961	1.20608	612
3	971	1.21152	648
3	981	1.21696	684
3	991	1.2224	720
3	1001	1.22784	756
3	1011	1.23328	792
3	1021	1.23872	828
3	1031	1.24416	864
3	1041	1.2496	900
3	1060	1.25504	936
3	1070	1.26048	972
3	1080	1.26592	1008
3	1090	1.27136	1044
3	1100	1.2768	1080
3	1110	1.28224	1116
3	1120	1.28768	1152
3	1130	1.29312	1188
3	1140	1.29856	1224
3	1169	1.304	1260
3	1179	1.30944	1296
3	1189	1.31488	1332
3	1199	1.32032	1368
3	1209	1.32576	1404
3	1219	1.3312	1440
3	1229	1.33664	1476
3	1239	1.34208	1512
3	1249	1.34752	1548
3	1276	1.35296	1584
3	1296	1.3584	1620
3	1407	1.36384	1656
3	1421	1.36928	1692
3	1427	1.37424	1728
3	1433	1.37472	1764
3	1443	1.37968	1800
3	1449	1.38016	1836
3	1459	1.38512	1872
3	1465	1.3856	1908
3	1475	1.39056	1944
3	1481	1.39104	1980
3	1491	1.396	2016
3	1497	1.39648	2052
3	1526	1.40144	2088
3	1532	1.40192	2124
3	1542	1.40688	2160
3	1548	1.40736	2196
3	1558	1.41232	2232
3	1564	1.4128	2268
3	1574	1.41776	2304
3	1580	1.41824	2340
3	1590	1.4232	2376
3	1596	1.42368	2412
3	1606	1.42864	2448
3	1612	1.42912	2484
3	1622	1.43408	2520
3	1628	1.43456	2556
3	1638	1.43952	2592
3	1644	1.44	2628
3	1654	1.44496	2664
3	1660	1.44544	2700
3	1679	1.4504	2736
3	1685	1.45088	2772
3	1695	1.45584	2808
3	1701	1.45632	2844
3	1711	1.46128	2880
3	1717	1.46176	2916
3	1727	1.46672	2952
3	1733	1.4672	2988
3	1743	1.47216	3024
3	1749	1.47264	3060
3	1759	1.4776	3096
3	1765	1.47808	3132
3	1775	1.48304	3168
3	1781	1.48352	3204
3	1791	1.48848	3240
3	1797	1.48896	3276
3	1807	1.49392	3312
3	1813	1.4944	3348
3	1823	1.49936	3384
3	1829	1.49984	3420
3	1858	1.5048	3456
3	1864	1.50528	3492
3	1874	1.51024	3528
3	1880	1.51072	3564
3	1890	1.51568	3600
3	1896	1.51616	3636
3	1906	1.52112	3672
3	1912	1.5216	3708
3	1922	1.52656	3744
3	1928	1.52704	3780
3	1938	1.532	3816
3	1944	1.53248	3852
3	1954	1.53744	3888
3	1960	1.53792	3924
3	1970	1.54288	3960
3	1976	1.54336	3996
3	1986	1.54832	4032
3	1992	1.5488	4068
3	2017	1.55376	4104
3	2023	1.55424	4140
3	2040	1.5592	4176
3	2046	1.55968	4212
3	2056	1.56464	4248
3	2062	1.56512	4284
3	2072	1.57008	4320
3	2078	1.57056	4356
3	2088	1.57552	4392
3	2094	1.576	4428
3	2104	1.58096	4464
3	2110	1.58144	4500
3	2120	1.5864	4536
3	2126	1.58688	4572
3	2136	1.59184	4608
3	2142	1.59232	4644
3	2152	1.59728	4680
3	2158	1.59776	4716
3	2187	1.60272	4752
3	2193	1.6032	4788
3	2203	1.60816	4824
3	2209	1.60864	4860
3	2219	1.6136	4896
3	2225	1.61408	4932
3	2243	1.61952	4968
3	2257	1.62496	5004
3	2271	1.6304	5040
3	2285	1.63584	5076
3	2299	1.64128	5112
3	2313	1.64672	5148
3	2340	1.65216	5184
3	2354	1.6576	5220
3	2691	1.77824	5256
3	2701	1.78368	5292
3	2711	1.78912	5328
3	2721	1.79456	5364
3	2752	1.8	5400
3	2764	1.80544	5436
3	2774	1.81088	5472
3	2784	1.81632	5508
3	2794	1.82176	5544
3	2804	1.8272	5580
3	2814	1.83264	5616
3	2824	1.83808	5652
3	2834	1.84352	5688
3	2844	1.84896	5724
3	2865	1.8544	5760
3	2882	1.85984	5796
3	2892	1.86528	5832
3	2902	1.87072	5868
3	2912	1.87616	5904
3	2922	1.8816	5940
3	2932	1.88704	5976
3	2942	1.89248	6012
3	2952	1.89792	6048
3	2981	1.90336	6084
3	2991	1.9088	6120
3	3001	1.91424	6156
3	3011	1.91968	6192
3	3021	1.92512	6228
3	3031	1.93056	6264
3	3041	1.936	6300
3	3051	1.94144	6336
3	3061	1.94688	6372
3	3080	1.95232	6408
3	3090	1.95776	6444
3	3100	1.9632	6480
3	3110	1.96864	6516
3	3120	1.97408	6552
3	3130	1.97952	6588
3	3140	1.98496	6624
3	3150	1.9904	6660
3	3160	1.99584	6696
3	3189	2.00128	6732
3	3199	2.00672	6768
3	3209	2.01216	6804
3	3219	2.0176	6840
3	3229	2.02304	6876
3	3239	2.02848	6912
3	3249	2.03392	6948
3	3259	2.03936	6984
3	3269	2.0448	7020
3	3290	2.05024	7056
3	3300	2.05568	7092
3	3310	2.06112	7128
3	3320	2.06656	7164
3	3330	2.072	7200

