version 2
run T2-0-20190906-16:40:07-9050
attr configname T2
attr datetime 20190906-16:40:07
attr experiment T2
attr inifile SimV2.ini
attr iterationvars ""
attr iterationvarsf ""
attr measurement ""
attr network NetworkTormV2
attr processid 9050
attr repetition 0
attr replication #0
attr resultdir results
attr runnumber 0
attr seedset 0
param **.mobility.traceFile "\"paths/T2.movements\""
param **.numNodes 5
param **.wirelessIfc.wirelessRange 25m
param **.bluetoothIfc.wirelessRange 25m
param **.numNodes 2
param **.application.usedRNG 1
param **.application.dataGenerationInterval 1ms
param **.application.dataSizeInBytes 10
param **.application.ttl 999999s
param **application.destinationAddr "\"Wf:00:00:00:00:02\""
param **application.destinationBTAddr "\"Bt:00:00:00:00:02\""
param **application.nodesThatGen true
param **application.nodesGenMsg "\"0\""
param **application.startMultipleMsg true
param **application.numMultipleMsg 100
param **application.hopsListSize 50
param **.routingLayer "\"RoutingLayer\""
param **.routing.maximumCacheSize 5000byte
param **.routing.maximumHopCount 25
param **.routing.useTTL false
param **.neighboring.antiEntropyInterval 200ms
param **.neighboring.maximumRandomBackoffDuration 1s
param **.neighboring.delayPerDataMsg 0.1
param **neighboring.usedRNG 2
param **.neighboring.GWAddr "\"02:00:00:00:00:03\""
param **.neighboring.sendWifiFirst true
param **.neighboring.maxLengthGraph 20
param **.wirelessIfc.wirelessRange 15m
param **.wirelessIfc.neighbourScanInterval 50ms
param **.wirelessIfc.bandwidthBitRate 100000bps
param **.wirelessIfc.wirelessHeaderSize 32byte
param **.wirelessIfc.minSSI -90
param **.bluetoothIfc.wirelessRange 15m
param **.bluetoothIfc.neighbourScanInterval 100ms
param **.bluetoothIfc.bandwidthBitRate 100000bps
param **.bluetoothIfc.wirelessHeaderSize 16byte
param **.bluetoothIfc.minSSI -90
param **.mobilityType "\"BonnMotionMobility\""
param **.mobility.traceFile "\"paths/Moves2.movements\""
param **.mobility.nodeId -1

vector 0 NetworkTormV2 neighbourhoodSize:vector ETV
attr source neighbourhoodSize
vector 1 NetworkTormV2 deliveryRatio:vector ETV
attr source sum(totalDataBytesReceived)/sum(totalDataBytesReceivableByAllNodes)
vector 2 NetworkTormV2 dataBytesReceivedSum:vector ETV
attr source sum(dataBytesReceived)
vector 3 NetworkTormV2 totalBytesReceivedSum:vector ETV
attr source sum(totalBytesReceived)
0	16	0.05	1
0	17	0.05	3
0	18	0.05	3
0	19	0.05	3
0	20	0.05	2
0	32	0.1	1
0	33	0.1	3
0	34	0.1	3
0	35	0.1	3
0	36	0.1	2
0	37	0.1	1
0	38	0.1	3
0	39	0.1	3
0	40	0.1	3
0	41	0.1	2
0	161	0.15	1
0	162	0.15	3
0	163	0.15	3
0	164	0.15	3
0	165	0.15	2
0	276	0.2	1
0	277	0.2	3
0	278	0.2	3
0	279	0.2	3
0	280	0.2	2
0	281	0.2	1
0	282	0.2	3
0	283	0.2	3
0	284	0.2	3
0	285	0.2	2
0	306	0.25	1
0	307	0.25	3
0	308	0.25	3
0	309	0.25	3
0	310	0.25	2
0	321	0.3	1
0	322	0.3	3
0	323	0.3	3
0	324	0.3	3
0	325	0.3	2
0	326	0.3	1
0	327	0.3	3
0	328	0.3	3
0	329	0.3	3
0	330	0.3	2
0	351	0.35	1
0	352	0.35	3
0	353	0.35	3
0	354	0.35	3
0	355	0.35	2
0	366	0.4	1
0	367	0.4	3
0	368	0.4	3
0	369	0.4	3
0	370	0.4	2
0	371	0.4	1
0	372	0.4	3
0	373	0.4	3
0	374	0.4	3
0	375	0.4	2
0	396	0.45	1
0	397	0.45	3
0	398	0.45	3
0	399	0.45	3
0	400	0.45	2
0	411	0.5	1
0	412	0.5	3
0	413	0.5	3
0	414	0.5	3
0	415	0.5	2
0	416	0.5	1
0	417	0.5	3
0	418	0.5	3
0	419	0.5	3
0	420	0.5	2
0	441	0.55	1
0	442	0.55	3
0	443	0.55	3
0	444	0.55	3
0	445	0.55	2
0	456	0.6	1
0	457	0.6	3
0	458	0.6	3
0	459	0.6	3
0	460	0.6	2
0	461	0.6	1
0	462	0.6	3
0	463	0.6	3
0	464	0.6	3
0	465	0.6	2
0	486	0.65	1
0	487	0.65	3
0	488	0.65	3
0	489	0.65	3
0	490	0.65	2
0	501	0.7	1
0	502	0.7	3
0	503	0.7	3
0	504	0.7	3
0	505	0.7	2
0	506	0.7	1
0	507	0.7	3
0	508	0.7	3
0	509	0.7	3
0	510	0.7	2
0	531	0.75	1
0	532	0.75	3
0	533	0.75	3
0	534	0.75	3
0	535	0.75	2
0	546	0.8	1
0	547	0.8	3
0	548	0.8	3
0	549	0.8	3
0	550	0.8	2
0	551	0.8	1
0	552	0.8	3
0	553	0.8	3
0	554	0.8	3
0	555	0.8	2
0	576	0.85	1
0	577	0.85	3
0	578	0.85	3
0	579	0.85	3
0	580	0.85	2
0	591	0.9	1
0	592	0.9	3
0	593	0.9	3
0	594	0.9	3
0	595	0.9	2
0	596	0.9	1
0	597	0.9	3
0	598	0.9	3
0	599	0.9	3
0	600	0.9	2
0	621	0.95	1
0	622	0.95	3
0	623	0.95	3
0	624	0.95	3
0	625	0.95	2
0	636	1	1
0	637	1	3
0	638	1	3
0	639	1	3
0	640	1	2
0	641	1	1
0	642	1	3
0	643	1	3
0	644	1	3
0	645	1	2
0	666	1.05	1
0	667	1.05	3
0	668	1.05	3
0	669	1.05	3
0	670	1.05	2
0	681	1.1	1
0	682	1.1	3
0	683	1.1	3
0	684	1.1	3
0	685	1.1	2
0	686	1.1	1
0	687	1.1	3
0	688	1.1	3
0	689	1.1	3
0	690	1.1	2
0	1129	1.15	1
0	1130	1.15	3
0	1131	1.15	3
0	1132	1.15	3
0	1133	1.15	2
1	31	0.1	-nan
1	63	0.101	-nan
1	65	0.102	-nan
1	67	0.103	-nan
1	69	0.104	-nan
1	71	0.105	-nan
1	73	0.106	-nan
1	75	0.107	-nan
1	77	0.108	-nan
1	79	0.109	-nan
1	81	0.11	-nan
1	83	0.111	-nan
1	85	0.112	-nan
1	87	0.113	-nan
1	89	0.114	-nan
1	91	0.115	-nan
1	93	0.116	-nan
1	95	0.117	-nan
1	97	0.118	-nan
1	99	0.119	-nan
1	101	0.12	-nan
1	103	0.121	-nan
1	105	0.122	-nan
1	107	0.123	-nan
1	109	0.124	-nan
1	111	0.125	-nan
1	113	0.126	-nan
1	115	0.127	-nan
1	117	0.128	-nan
1	119	0.129	-nan
1	121	0.13	-nan
1	123	0.131	-nan
1	125	0.132	-nan
1	127	0.133	-nan
1	129	0.134	-nan
1	131	0.135	-nan
1	133	0.136	-nan
1	135	0.137	-nan
1	137	0.138	-nan
1	139	0.139	-nan
1	141	0.14	-nan
1	143	0.141	-nan
1	145	0.142	-nan
1	147	0.143	-nan
1	149	0.144	-nan
1	151	0.145	-nan
1	153	0.146	-nan
1	155	0.147	-nan
1	157	0.148	-nan
1	159	0.149	-nan
1	166	0.15	-nan
1	178	0.151	-nan
1	180	0.152	-nan
1	182	0.153	-nan
1	184	0.154	-nan
1	186	0.155	-nan
1	188	0.156	-nan
1	190	0.157	-nan
1	192	0.158	-nan
1	194	0.159	-nan
1	196	0.16	-nan
1	198	0.161	-nan
1	200	0.162	-nan
1	202	0.163	-nan
1	204	0.164	-nan
1	206	0.165	-nan
1	208	0.166	-nan
1	210	0.167	-nan
1	212	0.168	-nan
1	214	0.169	-nan
1	216	0.17	-nan
1	218	0.171	-nan
1	220	0.172	-nan
1	222	0.173	-nan
1	224	0.174	-nan
1	226	0.175	-nan
1	228	0.176	-nan
1	230	0.177	-nan
1	232	0.178	-nan
1	234	0.179	-nan
1	236	0.18	-nan
1	238	0.181	-nan
1	240	0.182	-nan
1	242	0.183	-nan
1	244	0.184	-nan
1	246	0.185	-nan
1	248	0.186	-nan
1	250	0.187	-nan
1	252	0.188	-nan
1	254	0.189	-nan
1	256	0.19	-nan
1	258	0.191	-nan
1	260	0.192	-nan
1	262	0.193	-nan
1	264	0.194	-nan
1	266	0.195	-nan
1	268	0.196	-nan
1	270	0.197	-nan
1	272	0.198	-nan
1	274	0.199	-nan
2	1058	1.12352	36
2	1078	1.12896	72
2	1088	1.1344	108
2	1094	1.13536	144
2	1108	1.13984	180
2	1122	1.14528	216
2	1147	1.15072	252
2	1157	1.15616	288
2	1167	1.1616	324
2	1177	1.16704	360
2	1187	1.17248	396
2	1197	1.17792	432
2	1207	1.18336	468
2	1217	1.1888	504
2	1227	1.19424	540
2	1237	1.19968	576
3	1058	1.12352	36
3	1078	1.12896	72
3	1088	1.1344	108
3	1094	1.13536	144
3	1108	1.13984	180
3	1122	1.14528	216
3	1147	1.15072	252
3	1157	1.15616	288
3	1167	1.1616	324
3	1177	1.16704	360
3	1187	1.17248	396
3	1197	1.17792	432
3	1207	1.18336	468
3	1217	1.1888	504
3	1227	1.19424	540
3	1237	1.19968	576
0	1240	1.2	1
0	1241	1.2	3
0	1242	1.2	3
0	1243	1.2	3
0	1244	1.2	2
0	1245	1.2	1
0	1246	1.2	3
0	1247	1.2	3
0	1248	1.2	3
0	1249	1.2	2
0	1360	1.25	1
0	1361	1.25	3
0	1362	1.25	3
0	1363	1.25	3
0	1364	1.25	2
0	1465	1.3	1
0	1466	1.3	3
0	1467	1.3	3
0	1468	1.3	3
0	1469	1.3	2
0	1470	1.3	1
0	1471	1.3	3
0	1472	1.3	3
0	1473	1.3	3
0	1474	1.3	2
0	1589	1.35	1
0	1590	1.35	3
0	1591	1.35	3
0	1592	1.35	3
0	1593	1.35	2
0	2049	1.4	1
0	2050	1.4	3
0	2051	1.4	3
0	2052	1.4	3
0	2053	1.4	2
0	2054	1.4	1
0	2055	1.4	3
0	2056	1.4	3
0	2057	1.4	3
0	2058	1.4	2
0	2229	1.45	1
0	2230	1.45	3
0	2231	1.45	3
0	2232	1.45	3
0	2233	1.45	2
0	2392	1.5	1
0	2393	1.5	3
0	2394	1.5	3
0	2395	1.5	3
0	2396	1.5	2
0	2397	1.5	1
0	2398	1.5	3
0	2399	1.5	3
0	2400	1.5	3
0	2401	1.5	2
0	2566	1.55	1
0	2567	1.55	3
0	2568	1.55	3
0	2569	1.55	3
0	2570	1.55	2
0	2839	1.6	1
0	2840	1.6	3
0	2841	1.6	3
0	2842	1.6	3
0	2843	1.6	2
0	2844	1.6	1
0	2845	1.6	3
0	2846	1.6	3
0	2847	1.6	3
0	2848	1.6	2
0	3017	1.65	1
0	3018	1.65	3
0	3019	1.65	3
0	3020	1.65	3
0	3021	1.65	2
0	3158	1.7	1
0	3159	1.7	3
0	3160	1.7	3
0	3161	1.7	3
0	3162	1.7	2
0	3163	1.7	1
0	3164	1.7	3
0	3165	1.7	3
0	3166	1.7	3
0	3167	1.7	2
0	3278	1.75	1
0	3279	1.75	3
0	3280	1.75	3
0	3281	1.75	3
0	3282	1.75	2
0	3389	1.8	1
0	3390	1.8	3
0	3391	1.8	3
0	3392	1.8	3
0	3393	1.8	2
0	3394	1.8	1
0	3395	1.8	3
0	3396	1.8	3
0	3397	1.8	3
0	3398	1.8	2
0	3741	1.85	1
0	3742	1.85	3
0	3743	1.85	3
0	3744	1.85	3
0	3745	1.85	2
0	3908	1.9	1
0	3909	1.9	3
0	3910	1.9	3
0	3911	1.9	3
0	3912	1.9	2
0	3913	1.9	1
0	3914	1.9	3
0	3915	1.9	3
0	3916	1.9	3
0	3917	1.9	2
0	4108	1.95	1
0	4109	1.95	3
0	4110	1.95	3
0	4111	1.95	3
0	4112	1.95	2
0	4399	2	1
0	4400	2	3
0	4401	2	3
0	4402	2	3
0	4403	2	2
0	4404	2	1
0	4405	2	3
0	4406	2	3
0	4407	2	3
0	4408	2	2
0	4591	2.05	1
0	4592	2.05	3
0	4593	2.05	3
0	4594	2.05	3
0	4595	2.05	2
0	4989	2.1	1
0	4990	2.1	3
0	4991	2.1	3
0	4992	2.1	3
0	4993	2.1	2
0	4994	2.1	1
0	4995	2.1	3
0	4996	2.1	3
0	4997	2.1	3
0	4998	2.1	2
0	5259	2.15	1
0	5260	2.15	3
0	5261	2.15	3
0	5262	2.15	3
0	5263	2.15	2
0	5482	2.2	1
0	5483	2.2	3
0	5484	2.2	3
0	5485	2.2	3
0	5486	2.2	2
0	5487	2.2	1
0	5488	2.2	3
0	5489	2.2	3
0	5490	2.2	3
0	5491	2.2	2
0	5956	2.25	1
0	5957	2.25	3
0	5958	2.25	3
0	5959	2.25	3
0	5960	2.25	2
0	6148	2.3	1
0	6149	2.3	3
0	6150	2.3	3
0	6151	2.3	3
0	6152	2.3	2
0	6153	2.3	1
0	6154	2.3	3
0	6155	2.3	3
0	6156	2.3	3
0	6157	2.3	2
0	6468	2.35	1
0	6469	2.35	3
0	6470	2.35	3
0	6471	2.35	3
0	6472	2.35	2
0	6739	2.4	1
0	6740	2.4	3
0	6741	2.4	3
0	6742	2.4	3
0	6743	2.4	2
0	6744	2.4	1
0	6745	2.4	3
0	6746	2.4	3
0	6747	2.4	3
0	6748	2.4	2
0	6972	2.45	1
0	6973	2.45	3
0	6974	2.45	3
0	6975	2.45	3
0	6976	2.45	2
0	7148	2.5	1
0	7149	2.5	3
0	7150	2.5	3
0	7151	2.5	3
0	7152	2.5	2
0	7153	2.5	1
0	7154	2.5	3
0	7155	2.5	3
0	7156	2.5	3
0	7157	2.5	2
0	7272	2.55	1
0	7273	2.55	3
0	7274	2.55	3
0	7275	2.55	3
0	7276	2.55	2
0	7498	2.6	1
0	7499	2.6	3
0	7500	2.6	3
0	7501	2.6	3
0	7502	2.6	2
0	7503	2.6	1
0	7504	2.6	3
0	7505	2.6	3
0	7506	2.6	3
0	7507	2.6	2
0	7718	2.65	1
0	7719	2.65	3
0	7720	2.65	3
0	7721	2.65	3
0	7722	2.65	2
0	7817	2.7	1
0	7818	2.7	3
0	7819	2.7	3
0	7820	2.7	3
0	7821	2.7	2
0	7822	2.7	1
0	7823	2.7	3
0	7824	2.7	3
0	7825	2.7	3
0	7826	2.7	2
0	7954	2.75	1
0	7955	2.75	3
0	7956	2.75	3
0	7957	2.75	3
0	7958	2.75	2
0	8059	2.8	1
0	8060	2.8	3
0	8061	2.8	3
0	8062	2.8	3
0	8063	2.8	2
0	8064	2.8	1
0	8065	2.8	3
0	8066	2.8	3
0	8067	2.8	3
0	8068	2.8	2
0	8211	2.85	1
0	8212	2.85	3
0	8213	2.85	3
0	8214	2.85	3
0	8215	2.85	2
0	8469	2.9	1
0	8470	2.9	3
0	8471	2.9	3
0	8472	2.9	3
0	8473	2.9	2
0	8474	2.9	1
0	8475	2.9	3
0	8476	2.9	3
0	8477	2.9	3
0	8478	2.9	2
0	8647	2.95	1
0	8648	2.95	3
0	8649	2.95	3
0	8650	2.95	3
0	8651	2.95	2
0	8806	3	1
0	8807	3	3
0	8808	3	3
0	8809	3	3
0	8810	3	2
0	8811	3	1
0	8812	3	3
0	8813	3	3
0	8814	3	3
0	8815	3	2
0	8989	3.05	1
0	8990	3.05	3
0	8991	3.05	3
0	8992	3.05	3
0	8993	3.05	2
0	9180	3.1	1
0	9181	3.1	3
0	9182	3.1	3
0	9183	3.1	3
0	9184	3.1	2
0	9185	3.1	1
0	9186	3.1	3
0	9187	3.1	3
0	9188	3.1	3
0	9189	3.1	2
0	9369	3.15	1
0	9370	3.15	3
0	9371	3.15	3
0	9372	3.15	3
0	9373	3.15	2
0	9512	3.2	1
0	9513	3.2	3
0	9514	3.2	3
0	9515	3.2	3
0	9516	3.2	2
0	9517	3.2	1
0	9518	3.2	3
0	9519	3.2	3
0	9520	3.2	3
0	9521	3.2	2
0	9717	3.25	1
0	9718	3.25	3
0	9719	3.25	3
0	9720	3.25	3
0	9721	3.25	2
0	9858	3.3	1
0	9859	3.3	3
0	9860	3.3	3
0	9861	3.3	3
0	9862	3.3	2
0	9863	3.3	1
0	9864	3.3	3
0	9865	3.3	3
0	9866	3.3	3
0	9867	3.3	2
0	10066	3.35	1
0	10067	3.35	3
0	10068	3.35	3
0	10069	3.35	3
0	10070	3.35	2
0	10248	3.4	1
0	10249	3.4	3
0	10250	3.4	3
0	10251	3.4	3
0	10252	3.4	2
0	10253	3.4	1
0	10254	3.4	3
0	10255	3.4	3
0	10256	3.4	3
0	10257	3.4	2
0	10377	3.45	1
0	10378	3.45	3
0	10379	3.45	3
0	10380	3.45	3
0	10381	3.45	2
0	10489	3.5	1
0	10490	3.5	3
0	10491	3.5	3
0	10492	3.5	3
0	10493	3.5	2
0	10494	3.5	1
0	10495	3.5	3
0	10496	3.5	3
0	10497	3.5	3
0	10498	3.5	2
0	10568	3.55	1
0	10569	3.55	3
0	10570	3.55	3
0	10571	3.55	3
0	10572	3.55	2
0	10714	3.6	1
0	10715	3.6	3
0	10716	3.6	3
0	10717	3.6	3
0	10718	3.6	2
0	10719	3.6	1
0	10720	3.6	3
0	10721	3.6	3
0	10722	3.6	3
0	10723	3.6	2
0	10845	3.65	1
0	10846	3.65	3
0	10847	3.65	3
0	10848	3.65	3
0	10849	3.65	2
0	10924	3.7	1
0	10925	3.7	3
0	10926	3.7	3
0	10927	3.7	3
0	10928	3.7	2
0	10929	3.7	1
0	10930	3.7	3
0	10931	3.7	3
0	10932	3.7	3
0	10933	3.7	2
0	10967	3.75	1
0	10968	3.75	3
0	10969	3.75	3
0	10970	3.75	3
0	10971	3.75	2
0	10982	3.8	1
0	10983	3.8	3
0	10984	3.8	3
0	10985	3.8	3
0	10986	3.8	2
0	10987	3.8	1
0	10988	3.8	3
0	10989	3.8	3
0	10990	3.8	3
0	10991	3.8	2
0	11077	3.85	1
0	11078	3.85	3
0	11079	3.85	3
0	11080	3.85	3
0	11081	3.85	2
0	11131	3.9	1
0	11132	3.9	3
0	11133	3.9	3
0	11134	3.9	3
0	11135	3.9	2
0	11136	3.9	1
0	11137	3.9	3
0	11138	3.9	3
0	11139	3.9	3
0	11140	3.9	2
0	11161	3.95	1
0	11162	3.95	3
0	11163	3.95	3
0	11164	3.95	3
0	11165	3.95	2
0	11215	4	1
0	11216	4	3
0	11217	4	3
0	11218	4	3
0	11219	4	2
0	11220	4	1
0	11221	4	3
0	11222	4	3
0	11223	4	3
0	11224	4	2
0	11258	4.05	1
0	11259	4.05	3
0	11260	4.05	3
0	11261	4.05	3
0	11262	4.05	2
0	11299	4.1	1
0	11300	4.1	3
0	11301	4.1	3
0	11302	4.1	3
0	11303	4.1	2
0	11304	4.1	1
0	11305	4.1	3
0	11306	4.1	3
0	11307	4.1	3
0	11308	4.1	2
0	11394	4.15	1
0	11395	4.15	3
0	11396	4.15	3
0	11397	4.15	3
0	11398	4.15	2
0	11422	4.2	1
0	11423	4.2	3
0	11424	4.2	3
0	11425	4.2	3
0	11426	4.2	2
0	11427	4.2	1
0	11428	4.2	3
0	11429	4.2	3
0	11430	4.2	3
0	11431	4.2	2
0	11452	4.25	1
0	11453	4.25	3
0	11454	4.25	3
0	11455	4.25	3
0	11456	4.25	2
0	11506	4.3	1
0	11507	4.3	3
0	11508	4.3	3
0	11509	4.3	3
0	11510	4.3	2
0	11511	4.3	1
0	11512	4.3	3
0	11513	4.3	3
0	11514	4.3	3
0	11515	4.3	2
0	11575	4.35	1
0	11576	4.35	3
0	11577	4.35	3
0	11578	4.35	3
0	11579	4.35	2
0	11616	4.4	1
0	11617	4.4	3
0	11618	4.4	3
0	11619	4.4	3
0	11620	4.4	2
0	11621	4.4	1
0	11622	4.4	3
0	11623	4.4	3
0	11624	4.4	3
0	11625	4.4	2
0	11685	4.45	1
0	11686	4.45	3
0	11687	4.45	3
0	11688	4.45	3
0	11689	4.45	2
0	11713	4.5	1
0	11714	4.5	3
0	11715	4.5	3
0	11716	4.5	3
0	11717	4.5	2
0	11718	4.5	1
0	11719	4.5	3
0	11720	4.5	3
0	11721	4.5	3
0	11722	4.5	2
0	11743	4.55	1
0	11744	4.55	3
0	11745	4.55	3
0	11746	4.55	3
0	11747	4.55	2
0	11823	4.6	1
0	11824	4.6	3
0	11825	4.6	3
0	11826	4.6	3
0	11827	4.6	2
0	11828	4.6	1
0	11829	4.6	3
0	11830	4.6	3
0	11831	4.6	3
0	11832	4.6	2
0	11892	4.65	1
0	11893	4.65	3
0	11894	4.65	3
0	11895	4.65	3
0	11896	4.65	2
0	11907	4.7	1
0	11908	4.7	3
0	11909	4.7	3
0	11910	4.7	3
0	11911	4.7	2
0	11912	4.7	1
0	11913	4.7	3
0	11914	4.7	3
0	11915	4.7	3
0	11916	4.7	2
0	11976	4.75	1
0	11977	4.75	3
0	11978	4.75	3
0	11979	4.75	3
0	11980	4.75	2
0	12004	4.8	1
0	12005	4.8	3
0	12006	4.8	3
0	12007	4.8	3
0	12008	4.8	2
0	12009	4.8	1
0	12010	4.8	3
0	12011	4.8	3
0	12012	4.8	3
0	12013	4.8	2
0	12060	4.85	1
0	12061	4.85	3
0	12062	4.85	3
0	12063	4.85	3
0	12064	4.85	2
0	12140	4.9	1
0	12141	4.9	3
0	12142	4.9	3
0	12143	4.9	3
0	12144	4.9	2
0	12145	4.9	1
0	12146	4.9	3
0	12147	4.9	3
0	12148	4.9	3
0	12149	4.9	2
0	12183	4.95	1
0	12184	4.95	3
0	12185	4.95	3
0	12186	4.95	3
0	12187	4.95	2
2	1277	1.20512	612
2	1287	1.21056	648
2	1297	1.216	684
2	1307	1.22144	720
2	1317	1.22688	756
2	1327	1.23232	792
2	1337	1.23776	828
2	1347	1.2432	864
2	1357	1.24864	900
2	1382	1.25408	936
2	1392	1.25952	972
2	1402	1.26496	1008
2	1412	1.2704	1044
2	1422	1.27584	1080
2	1432	1.28128	1116
2	1442	1.28672	1152
2	1452	1.29216	1188
2	1462	1.2976	1224
2	1502	1.30304	1260
2	1512	1.30848	1296
2	1522	1.31392	1332
2	1532	1.31936	1368
2	1542	1.3248	1404
2	1552	1.33024	1440
2	1562	1.33568	1476
2	1572	1.34112	1512
2	1582	1.34656	1548
2	1631	1.352	1584
2	1665	1.35744	1620
2	1699	1.36288	1656
2	1742	1.36832	1692
2	1858	1.37376	1728
2	1974	1.3792	1764
2	1984	1.3828	1800
2	1994	1.38464	1836
2	2004	1.38824	1872
2	2010	1.3884	1908
2	2016	1.39008	1944
2	2030	1.39384	1980
2	2036	1.39552	2016
2	2046	1.39928	2052
2	2082	1.40096	2088
2	2092	1.40472	2124
2	2098	1.4064	2160
2	2108	1.41016	2196
2	2114	1.41184	2232
2	2124	1.4156	2268
2	2130	1.41728	2304
2	2140	1.42104	2340
2	2146	1.42272	2376
2	2156	1.42648	2412
2	2162	1.42816	2448
2	2172	1.43192	2484
2	2178	1.4336	2520
2	2188	1.43736	2556
2	2194	1.43904	2592
2	2204	1.4428	2628
2	2210	1.44448	2664
2	2220	1.44824	2700
2	2226	1.44992	2736
2	2251	1.45368	2772
2	2257	1.45536	2808
2	2267	1.45912	2844
2	2273	1.4608	2880
2	2283	1.46456	2916
2	2289	1.46624	2952
2	2299	1.47	2988
2	2305	1.47168	3024
2	2315	1.47544	3060
2	2321	1.47712	3096
2	2331	1.48088	3132
2	2337	1.48256	3168
2	2347	1.48632	3204
2	2353	1.488	3240
2	2363	1.49176	3276
2	2369	1.49344	3312
2	2379	1.4972	3348
2	2385	1.49888	3384
2	2425	1.50264	3420
2	2431	1.50432	3456
2	2441	1.50808	3492
2	2447	1.50976	3528
2	2457	1.51352	3564
2	2463	1.5152	3600
2	2473	1.51896	3636
2	2479	1.52064	3672
2	2489	1.5244	3708
2	2495	1.52608	3744
2	2505	1.52984	3780
2	2511	1.53152	3816
2	2521	1.53528	3852
2	2527	1.53696	3888
2	2537	1.54072	3924
2	2543	1.5424	3960
2	2553	1.54616	3996
2	2559	1.54784	4032
2	2606	1.5516	4068
2	2612	1.55328	4104
2	2639	1.55704	4140
2	2645	1.55872	4176
2	2672	1.56248	4212
2	2692	1.56416	4248
2	2702	1.56792	4284
2	2716	1.5696	4320
2	2740	1.57336	4356
2	2746	1.57504	4392
2	2756	1.57816	4428
2	2762	1.5788	4464
2	2772	1.58048	4500
2	2782	1.58424	4536
2	2792	1.58592	4572
2	2802	1.58968	4608
2	2812	1.59136	4644
2	2822	1.59512	4680
2	2832	1.5968	4716
2	2872	1.60056	4752
2	2878	1.60224	4788
2	2888	1.606	4824
2	2894	1.60768	4860
2	2904	1.61144	4896
2	2910	1.61312	4932
2	2920	1.61688	4968
2	2926	1.61856	5004
2	2936	1.62232	5040
2	2942	1.624	5076
2	2952	1.62776	5112
2	2958	1.62944	5148
2	2968	1.6332	5184
2	2974	1.63488	5220
2	2988	1.64032	5256
2	2994	1.6412	5292
2	3004	1.64576	5328
2	3010	1.64664	5364
2	3035	1.6512	5400
2	3041	1.65208	5436
2	3051	1.65664	5472
2	3057	1.65752	5508
2	3067	1.66208	5544
2	3073	1.66296	5580
2	3090	1.6684	5616
2	3104	1.67384	5652
2	3121	1.67928	5688
2	3131	1.68472	5724
2	3141	1.69016	5760
2	3151	1.6956	5796
2	3191	1.70104	5832
2	3201	1.70648	5868
2	3211	1.71192	5904
2	3221	1.71736	5940
2	3231	1.7228	5976
2	3241	1.72824	6012
2	3251	1.73368	6048
2	3261	1.73912	6084
2	3271	1.74456	6120
2	3296	1.75	6156
2	3306	1.75544	6192
2	3316	1.76088	6228
2	3326	1.76632	6264
2	3336	1.77176	6300
2	3346	1.7772	6336
2	3356	1.78264	6372
2	3366	1.78808	6408
2	3376	1.79352	6444
2	3386	1.79896	6480
2	3444	1.8044	6516
2	3485	1.80984	6552
2	3510	1.81528	6588
2	3660	1.82072	6624
2	3674	1.82616	6660
2	3684	1.8316	6696
2	3690	1.83288	6732
2	3700	1.83704	6768
2	3706	1.83832	6804
2	3716	1.84248	6840
2	3722	1.84376	6876
2	3732	1.84792	6912
2	3738	1.8492	6948
2	3763	1.85336	6984
2	3769	1.85464	7020
2	3779	1.8588	7056
2	3785	1.86008	7092
2	3795	1.86424	7128
2	3801	1.86552	7164
2	3811	1.86968	7200
2	3817	1.87096	7236
2	3827	1.87512	7272
2	3833	1.8764	7308
2	3843	1.88056	7344
2	3849	1.88184	7380
2	3859	1.886	7416
2	3865	1.88728	7452
2	3883	1.89272	7488
2	3901	1.89816	7524
2	3949	1.9036	7560
2	3970	1.90904	7596
2	3989	1.91448	7632
2	4007	1.91992	7668
2	4025	1.92536	7704
2	4043	1.9308	7740
2	4061	1.93624	7776
2	4079	1.94168	7812
2	4097	1.94712	7848
2	4133	1.95256	7884
2	4152	1.958	7920
2	4170	1.96344	7956
2	4188	1.96888	7992
2	4205	1.97432	8028
2	4338	1.97976	8064
2	4352	1.9852	8100
2	4366	1.99064	8136
2	4384	1.99608	8172
2	4435	2.00152	8208
2	4454	2.00696	8244
2	4472	2.0124	8280
2	4490	2.01784	8316
2	4508	2.02328	8352
2	4526	2.02872	8388
2	4544	2.03416	8424
2	4562	2.0396	8460
2	4580	2.04504	8496
2	4621	2.05048	8532
2	4648	2.05592	8568
2	4679	2.06136	8604
2	4724	2.0668	8640
2	4730	2.06808	8676
2	4860	2.07224	8712
2	4866	2.07352	8748
2	4876	2.07672	8784
2	4882	2.07768	8820
2	4888	2.07896	8856
2	4902	2.08216	8892
2	4908	2.08312	8928
2	4914	2.0844	8964
2	4928	2.0876	9000
2	4934	2.08856	9036
2	4940	2.08984	9072
2	4954	2.09304	9108
2	4960	2.094	9144
2	4966	2.09528	9180
2	4980	2.09848	9216
2	4986	2.09944	9252
2	5022	2.10072	9288
2	5036	2.10392	9324
2	5042	2.10488	9360
2	5048	2.10616	9396
2	5062	2.10936	9432
2	5068	2.11032	9468
2	5074	2.1116	9504
2	5088	2.1148	9540
2	5094	2.11576	9576
2	5100	2.11704	9612
2	5114	2.12024	9648
2	5120	2.1212	9684
2	5126	2.12248	9720
2	5140	2.12568	9756
2	5146	2.12664	9792
2	5152	2.12792	9828
2	5174	2.13208	9864
2	5183	2.13336	9900
2	5198	2.13752	9936
2	5208	2.1388	9972
2	5222	2.14296	10008
2	5232	2.14424	10044
2	5246	2.1484	10080
2	5256	2.14968	10116
2	5288	2.15384	10152
2	5295	2.15512	10188
2	5313	2.15928	10224
2	5319	2.16056	10260
2	5337	2.16472	10296
2	5343	2.166	10332
2	5361	2.17016	10368
2	5367	2.17144	10404
2	5385	2.1756	10440
2	5394	2.17688	10476
2	5409	2.18104	10512
2	5415	2.18232	10548
2	5429	2.18648	10584
2	5435	2.18776	10620
2	5457	2.1932	10656
2	5475	2.19864	10692
2	5529	2.20408	10728
2	5564	2.20952	10764
2	5583	2.21496	10800
2	5601	2.2204	10836
2	5721	2.22584	10872
2	5738	2.23128	10908
2	5785	2.23672	10944
2	5829	2.24216	10980
2	5953	2.2476	11016
2	5985	2.25304	11052
2	5995	2.2572	11088
2	6001	2.25848	11124
2	6015	2.26264	11160
2	6021	2.26392	11196
2	6035	2.26808	11232
2	6041	2.26936	11268
2	6055	2.27352	11304
2	6061	2.2748	11340
2	6075	2.27896	11376
2	6081	2.28024	11412
2	6095	2.2844	11448
2	6101	2.28568	11484
2	6115	2.28984	11520
2	6121	2.29112	11556
2	6135	2.29528	11592
2	6141	2.29656	11628
2	6193	2.30072	11664
2	6199	2.302	11700
2	6219	2.30616	11736
2	6228	2.30744	11772
2	6243	2.3116	11808
2	6249	2.31288	11844
2	6305	2.31704	11880
2	6315	2.31832	11916
2	6325	2.32008	11952
2	6335	2.32248	11988
2	6341	2.32376	12024
2	6351	2.32552	12060
2	6361	2.32792	12096
2	6367	2.3292	12132
2	6377	2.33096	12168
2	6387	2.33336	12204
2	6393	2.33464	12240
2	6403	2.3364	12276
2	6413	2.3388	12312
2	6419	2.34008	12348
2	6429	2.34184	12384
2	6439	2.34424	12420
2	6449	2.34552	12456
2	6455	2.34728	12492
2	6465	2.34968	12528
2	6498	2.35096	12564
2	6504	2.35272	12600
2	6514	2.35512	12636
2	6524	2.3564	12672
2	6533	2.35816	12708
2	6540	2.36056	12744
2	6550	2.36184	12780
2	6556	2.3636	12816
2	6569	2.366	12852
2	6575	2.36728	12888
2	6585	2.36904	12924
2	6595	2.37144	12960
2	6601	2.37272	12996
2	6611	2.37448	13032
2	6621	2.37688	13068
2	6631	2.37816	13104
2	6637	2.37992	13140
2	6647	2.38232	13176
2	6657	2.3836	13212
2	6663	2.38536	13248
2	6673	2.38776	13284
2	6683	2.38904	13320
2	6692	2.3908	13356
2	6699	2.3932	13392
2	6709	2.39448	13428
2	6719	2.39624	13464
2	6736	2.39992	13500
2	6778	2.40168	13536
2	6795	2.40536	13572
2	6809	2.40712	13608
2	6819	2.4108	13644
2	6829	2.41256	13680
2	6839	2.41624	13716
2	6845	2.418	13752
2	6859	2.42168	13788
2	6865	2.42344	13824
2	6879	2.42712	13860
2	6889	2.42888	13896
2	6899	2.43256	13932
2	6909	2.43432	13968
2	6919	2.438	14004
2	6929	2.43976	14040
2	6943	2.44344	14076
2	6965	2.44888	14112
2	7005	2.45432	14148
2	7031	2.45976	14184
2	7057	2.4652	14220
2	7079	2.47064	14256
2	7097	2.47608	14292
2	7111	2.48152	14328
2	7125	2.48696	14364
2	7135	2.4924	14400
2	7145	2.49784	14436
2	7185	2.50328	14472
2	7195	2.50872	14508
2	7205	2.51416	14544
2	7215	2.5196	14580
2	7225	2.52504	14616
2	7235	2.53048	14652
2	7245	2.53592	14688
2	7255	2.54136	14724
2	7265	2.5468	14760
2	7296	2.55224	14796
2	7327	2.55768	14832
2	7341	2.56312	14868
2	7377	2.56856	14904
2	7391	2.57176	14940
2	7400	2.574	14976
2	7411	2.5772	15012
2	7421	2.57944	15048
2	7431	2.58264	15084
2	7441	2.58488	15120
2	7451	2.58808	15156
2	7461	2.59032	15192
2	7471	2.59352	15228
2	7481	2.59576	15264
2	7491	2.59896	15300
2	7535	2.6012	15336
2	7545	2.6044	15372
2	7562	2.60664	15408
2	7575	2.60984	15444
2	7582	2.61208	15480
2	7596	2.61528	15516
2	7602	2.61752	15552
2	7616	2.62072	15588
2	7622	2.62296	15624
2	7636	2.62616	15660
2	7642	2.6284	15696
2	7656	2.6316	15732
2	7662	2.63384	15768
2	7676	2.63704	15804
2	7682	2.63928	15840
2	7703	2.64472	15876
2	7736	2.65016	15912
2	7754	2.66488	15948
2	7764	2.67032	15984
2	7774	2.67576	16020
2	7784	2.6812	16056
2	7794	2.68664	16092
2	7804	2.69208	16128
2	7814	2.69752	16164
2	7856	2.70296	16200
2	7873	2.7084	16236
2	7887	2.71384	16272
2	7897	2.71928	16308
2	7907	2.72472	16344
2	7917	2.73016	16380
2	7927	2.7356	16416
2	7937	2.74104	16452
2	7947	2.74648	16488
2	7972	2.75192	16524
2	7982	2.75736	16560
2	7992	2.7628	16596
2	8002	2.76824	16632
2	8012	2.77368	16668
2	8022	2.77912	16704
2	8032	2.78456	16740
2	8042	2.79	16776
2	8052	2.79544	16812
2	8096	2.80088	16848
2	8120	2.80632	16884
2	8138	2.81176	16920
2	8148	2.8172	16956
2	8158	2.82264	16992
2	8168	2.82808	17028
2	8178	2.83352	17064
2	8188	2.83896	17100
2	8198	2.8444	17136
2	8208	2.84984	17172
2	8246	2.85528	17208
2	8259	2.86072	17244
2	8376	2.86616	17280
2	8390	2.8716	17316
2	8396	2.87656	17352
2	8402	2.87704	17388
2	8412	2.882	17424
2	8418	2.88248	17460
2	8428	2.88744	17496
2	8434	2.88792	17532
2	8444	2.89288	17568
2	8450	2.89336	17604
2	8460	2.89832	17640
2	8466	2.8988	17676
2	8506	2.90376	17712
2	8512	2.90424	17748
2	8522	2.9092	17784
2	8528	2.90968	17820
2	8538	2.91464	17856
2	8544	2.91512	17892
2	8554	2.92008	17928
2	8560	2.92056	17964
2	8570	2.92552	18000
2	8576	2.926	18036
2	8586	2.93096	18072
2	8592	2.93144	18108
2	8602	2.9364	18144
2	8608	2.93688	18180
2	8618	2.94184	18216
2	8624	2.94232	18252
2	8634	2.94728	18288
2	8640	2.94776	18324
2	8665	2.95272	18360
2	8671	2.9532	18396
2	8681	2.95816	18432
2	8687	2.95864	18468
2	8697	2.9636	18504
2	8703	2.96408	18540
2	8713	2.96904	18576
2	8719	2.96952	18612
2	8729	2.97448	18648
2	8735	2.97496	18684
2	8745	2.97992	18720
2	8751	2.9804	18756
2	8761	2.98536	18792
2	8767	2.98584	18828
2	8777	2.9908	18864
2	8783	2.99128	18900
2	8793	2.99624	18936
2	8799	2.99672	18972
2	8841	3.00168	19008
2	8847	3.00216	19044
2	8864	3.00712	19080
2	8870	3.0076	19116
2	8880	3.01256	19152
2	8886	3.01304	19188
2	8896	3.018	19224
2	8902	3.01848	19260
2	8912	3.02344	19296
2	8918	3.02392	19332
2	8928	3.02888	19368
2	8934	3.02936	19404
2	8944	3.03432	19440
2	8950	3.0348	19476
2	8960	3.03976	19512
2	8966	3.04024	19548
2	8976	3.0452	19584
2	8982	3.04568	19620
2	9011	3.05064	19656
2	9017	3.05112	19692
2	9037	3.05608	19728
2	9043	3.05656	19764
2	9057	3.06152	19800
2	9067	3.062	19836
2	9081	3.06696	19872
2	9087	3.06744	19908
2	9097	3.0724	19944
2	9103	3.07288	19980
2	9113	3.07784	20016
2	9119	3.07832	20052
2	9129	3.08328	20088
2	9135	3.08376	20124
2	9145	3.08872	20160
2	9151	3.0892	20196
2	9161	3.09416	20232
2	9167	3.09464	20268
2	9177	3.0996	20304
2	9217	3.10008	20340
2	9227	3.10504	20376
2	9233	3.10552	20412
2	9250	3.11048	20448
2	9256	3.11096	20484
2	9266	3.11592	20520
2	9272	3.1164	20556
2	9282	3.12136	20592
2	9288	3.12184	20628
2	9306	3.12728	20664
2	9320	3.13272	20700
2	9334	3.13816	20736
2	9348	3.1436	20772
2	9362	3.14904	20808
2	9393	3.15448	20844
2	9411	3.15992	20880
2	9425	3.16536	20916
2	9439	3.1708	20952
2	9453	3.17624	20988
2	9467	3.18168	21024
2	9481	3.18712	21060
2	9494	3.19256	21096
2	9509	3.198	21132
2	9553	3.20344	21168
2	9567	3.20888	21204
2	9581	3.21432	21240
2	9595	3.21976	21276
2	9609	3.2252	21312
2	9623	3.23064	21348
2	9640	3.23608	21384
2	9959	3.31456	21420
2	9973	3.32	21456
2	9979	3.32168	21492
2	9989	3.32544	21528
2	9995	3.32712	21564
2	10005	3.33088	21600
2	10011	3.33256	21636
2	10021	3.33632	21672
2	10027	3.338	21708
2	10037	3.34176	21744
2	10043	3.34344	21780
2	10053	3.3472	21816
2	10059	3.34888	21852
2	10092	3.35264	21888
2	10098	3.35432	21924
2	10122	3.35808	21960
2	10132	3.35976	21996
2	10154	3.3652	22032
2	10168	3.37064	22068
2	10182	3.37608	22104
2	10199	3.38152	22140
2	10213	3.38696	22176
2	10227	3.3924	22212
2	10241	3.39784	22248
2	10289	3.40328	22284
2	10310	3.41336	22320
2	10320	3.4188	22356
2	10330	3.42424	22392
2	10340	3.42968	22428
2	10350	3.43512	22464
2	10360	3.44056	22500
2	10370	3.446	22536
2	10395	3.45144	22572
2	10405	3.45688	22608
2	10415	3.46232	22644
2	10425	3.46776	22680
2	10435	3.4732	22716
2	10445	3.47864	22752
2	10455	3.48408	22788
2	10465	3.48952	22824
2	10475	3.49496	22860
2	10657	3.5692	22896
2	10667	3.57464	22932
2	10677	3.58008	22968
2	10687	3.58552	23004
2	10697	3.59096	23040
2	10707	3.5964	23076
2	10751	3.60184	23112
2	10768	3.60728	23148
2	10778	3.61272	23184
2	10788	3.61816	23220
2	10798	3.6236	23256
2	10808	3.62904	23292
2	10818	3.63448	23328
2	10828	3.63992	23364
2	10838	3.64536	23400
2	10869	3.6508	23436
3	1277	1.20512	612
3	1287	1.21056	648
3	1297	1.216	684
3	1307	1.22144	720
3	1317	1.22688	756
3	1327	1.23232	792
3	1337	1.23776	828
3	1347	1.2432	864
3	1357	1.24864	900
3	1382	1.25408	936
3	1392	1.25952	972
3	1402	1.26496	1008
3	1412	1.2704	1044
3	1422	1.27584	1080
3	1432	1.28128	1116
3	1442	1.28672	1152
3	1452	1.29216	1188
3	1462	1.2976	1224
3	1502	1.30304	1260
3	1512	1.30848	1296
3	1522	1.31392	1332
3	1532	1.31936	1368
3	1542	1.3248	1404
3	1552	1.33024	1440
3	1562	1.33568	1476
3	1572	1.34112	1512
3	1582	1.34656	1548
3	1631	1.352	1584
3	1665	1.35744	1620
3	1699	1.36288	1656
3	1742	1.36832	1692
3	1858	1.37376	1728
3	1974	1.3792	1764
3	1984	1.3828	1800
3	1994	1.38464	1836
3	2004	1.38824	1872
3	2010	1.3884	1908
3	2016	1.39008	1944
3	2030	1.39384	1980
3	2036	1.39552	2016
3	2046	1.39928	2052
3	2082	1.40096	2088
3	2092	1.40472	2124
3	2098	1.4064	2160
3	2108	1.41016	2196
3	2114	1.41184	2232
3	2124	1.4156	2268
3	2130	1.41728	2304
3	2140	1.42104	2340
3	2146	1.42272	2376
3	2156	1.42648	2412
3	2162	1.42816	2448
3	2172	1.43192	2484
3	2178	1.4336	2520
3	2188	1.43736	2556
3	2194	1.43904	2592
3	2204	1.4428	2628
3	2210	1.44448	2664
3	2220	1.44824	2700
3	2226	1.44992	2736
3	2251	1.45368	2772
3	2257	1.45536	2808
3	2267	1.45912	2844
3	2273	1.4608	2880
3	2283	1.46456	2916
3	2289	1.46624	2952
3	2299	1.47	2988
3	2305	1.47168	3024
3	2315	1.47544	3060
3	2321	1.47712	3096
3	2331	1.48088	3132
3	2337	1.48256	3168
3	2347	1.48632	3204
3	2353	1.488	3240
3	2363	1.49176	3276
3	2369	1.49344	3312
3	2379	1.4972	3348
3	2385	1.49888	3384
3	2425	1.50264	3420
3	2431	1.50432	3456
3	2441	1.50808	3492
3	2447	1.50976	3528
3	2457	1.51352	3564
3	2463	1.5152	3600
3	2473	1.51896	3636
3	2479	1.52064	3672
3	2489	1.5244	3708
3	2495	1.52608	3744
3	2505	1.52984	3780
3	2511	1.53152	3816
3	2521	1.53528	3852
3	2527	1.53696	3888
3	2537	1.54072	3924
3	2543	1.5424	3960
3	2553	1.54616	3996
3	2559	1.54784	4032
3	2606	1.5516	4068
3	2612	1.55328	4104
3	2639	1.55704	4140
3	2645	1.55872	4176
3	2672	1.56248	4212
3	2692	1.56416	4248
3	2702	1.56792	4284
3	2716	1.5696	4320
3	2740	1.57336	4356
3	2746	1.57504	4392
3	2756	1.57816	4428
3	2762	1.5788	4464
3	2772	1.58048	4500
3	2782	1.58424	4536
3	2792	1.58592	4572
3	2802	1.58968	4608
3	2812	1.59136	4644
3	2822	1.59512	4680
3	2832	1.5968	4716
3	2872	1.60056	4752
3	2878	1.60224	4788
3	2888	1.606	4824
3	2894	1.60768	4860
3	2904	1.61144	4896
3	2910	1.61312	4932
3	2920	1.61688	4968
3	2926	1.61856	5004
3	2936	1.62232	5040
3	2942	1.624	5076
3	2952	1.62776	5112
3	2958	1.62944	5148
3	2968	1.6332	5184
3	2974	1.63488	5220
3	2988	1.64032	5256
3	2994	1.6412	5292
3	3004	1.64576	5328
3	3010	1.64664	5364
3	3035	1.6512	5400
3	3041	1.65208	5436
3	3051	1.65664	5472
3	3057	1.65752	5508
3	3067	1.66208	5544
3	3073	1.66296	5580
3	3090	1.6684	5616
3	3104	1.67384	5652
3	3121	1.67928	5688
3	3131	1.68472	5724
3	3141	1.69016	5760
3	3151	1.6956	5796
3	3191	1.70104	5832
3	3201	1.70648	5868
3	3211	1.71192	5904
3	3221	1.71736	5940
3	3231	1.7228	5976
3	3241	1.72824	6012
3	3251	1.73368	6048
3	3261	1.73912	6084
3	3271	1.74456	6120
3	3296	1.75	6156
3	3306	1.75544	6192
3	3316	1.76088	6228
3	3326	1.76632	6264
3	3336	1.77176	6300
3	3346	1.7772	6336
3	3356	1.78264	6372
3	3366	1.78808	6408
3	3376	1.79352	6444
3	3386	1.79896	6480
3	3444	1.8044	6516
3	3485	1.80984	6552
3	3510	1.81528	6588
3	3660	1.82072	6624
3	3674	1.82616	6660
3	3684	1.8316	6696
3	3690	1.83288	6732
3	3700	1.83704	6768
3	3706	1.83832	6804
3	3716	1.84248	6840
3	3722	1.84376	6876
3	3732	1.84792	6912
3	3738	1.8492	6948
3	3763	1.85336	6984
3	3769	1.85464	7020
3	3779	1.8588	7056
3	3785	1.86008	7092
3	3795	1.86424	7128
3	3801	1.86552	7164
3	3811	1.86968	7200
3	3817	1.87096	7236
3	3827	1.87512	7272
3	3833	1.8764	7308
3	3843	1.88056	7344
3	3849	1.88184	7380
3	3859	1.886	7416
3	3865	1.88728	7452
3	3883	1.89272	7488
3	3901	1.89816	7524
3	3949	1.9036	7560
3	3970	1.90904	7596
3	3989	1.91448	7632
3	4007	1.91992	7668
3	4025	1.92536	7704
3	4043	1.9308	7740
3	4061	1.93624	7776
3	4079	1.94168	7812
3	4097	1.94712	7848
3	4133	1.95256	7884
3	4152	1.958	7920
3	4170	1.96344	7956
3	4188	1.96888	7992
3	4205	1.97432	8028
3	4338	1.97976	8064
3	4352	1.9852	8100
3	4366	1.99064	8136
3	4384	1.99608	8172
3	4435	2.00152	8208
3	4454	2.00696	8244
3	4472	2.0124	8280
3	4490	2.01784	8316
3	4508	2.02328	8352
3	4526	2.02872	8388
3	4544	2.03416	8424
3	4562	2.0396	8460
3	4580	2.04504	8496
3	4621	2.05048	8532
3	4648	2.05592	8568
3	4679	2.06136	8604
3	4724	2.0668	8640
3	4730	2.06808	8676
3	4860	2.07224	8712
3	4866	2.07352	8748
3	4876	2.07672	8784
3	4882	2.07768	8820
3	4888	2.07896	8856
3	4902	2.08216	8892
3	4908	2.08312	8928
3	4914	2.0844	8964
3	4928	2.0876	9000
3	4934	2.08856	9036
3	4940	2.08984	9072
3	4954	2.09304	9108
3	4960	2.094	9144
3	4966	2.09528	9180
3	4980	2.09848	9216
3	4986	2.09944	9252
3	5022	2.10072	9288
3	5036	2.10392	9324
3	5042	2.10488	9360
3	5048	2.10616	9396
3	5062	2.10936	9432
3	5068	2.11032	9468
3	5074	2.1116	9504
3	5088	2.1148	9540
3	5094	2.11576	9576
3	5100	2.11704	9612
3	5114	2.12024	9648
3	5120	2.1212	9684
3	5126	2.12248	9720
3	5140	2.12568	9756
3	5146	2.12664	9792
3	5152	2.12792	9828
3	5174	2.13208	9864
3	5183	2.13336	9900
3	5198	2.13752	9936
3	5208	2.1388	9972
3	5222	2.14296	10008
3	5232	2.14424	10044
3	5246	2.1484	10080
3	5256	2.14968	10116
3	5288	2.15384	10152
3	5295	2.15512	10188
3	5313	2.15928	10224
3	5319	2.16056	10260
3	5337	2.16472	10296
3	5343	2.166	10332
3	5361	2.17016	10368
3	5367	2.17144	10404
3	5385	2.1756	10440
3	5394	2.17688	10476
3	5409	2.18104	10512
3	5415	2.18232	10548
3	5429	2.18648	10584
3	5435	2.18776	10620
3	5457	2.1932	10656
3	5475	2.19864	10692
3	5529	2.20408	10728
3	5564	2.20952	10764
3	5583	2.21496	10800
3	5601	2.2204	10836
3	5721	2.22584	10872
3	5738	2.23128	10908
3	5785	2.23672	10944
3	5829	2.24216	10980
3	5953	2.2476	11016
3	5985	2.25304	11052
3	5995	2.2572	11088
3	6001	2.25848	11124
3	6015	2.26264	11160
3	6021	2.26392	11196
3	6035	2.26808	11232
3	6041	2.26936	11268
3	6055	2.27352	11304
3	6061	2.2748	11340
3	6075	2.27896	11376
3	6081	2.28024	11412
3	6095	2.2844	11448
3	6101	2.28568	11484
3	6115	2.28984	11520
3	6121	2.29112	11556
3	6135	2.29528	11592
3	6141	2.29656	11628
3	6193	2.30072	11664
3	6199	2.302	11700
3	6219	2.30616	11736
3	6228	2.30744	11772
3	6243	2.3116	11808
3	6249	2.31288	11844
3	6305	2.31704	11880
3	6315	2.31832	11916
3	6325	2.32008	11952
3	6335	2.32248	11988
3	6341	2.32376	12024
3	6351	2.32552	12060
3	6361	2.32792	12096
3	6367	2.3292	12132
3	6377	2.33096	12168
3	6387	2.33336	12204
3	6393	2.33464	12240
3	6403	2.3364	12276
3	6413	2.3388	12312
3	6419	2.34008	12348
3	6429	2.34184	12384
3	6439	2.34424	12420
3	6449	2.34552	12456
3	6455	2.34728	12492
3	6465	2.34968	12528
3	6498	2.35096	12564
3	6504	2.35272	12600
3	6514	2.35512	12636
3	6524	2.3564	12672
3	6533	2.35816	12708
3	6540	2.36056	12744
3	6550	2.36184	12780
3	6556	2.3636	12816
3	6569	2.366	12852
3	6575	2.36728	12888
3	6585	2.36904	12924
3	6595	2.37144	12960
3	6601	2.37272	12996
3	6611	2.37448	13032
3	6621	2.37688	13068
3	6631	2.37816	13104
3	6637	2.37992	13140
3	6647	2.38232	13176
3	6657	2.3836	13212
3	6663	2.38536	13248
3	6673	2.38776	13284
3	6683	2.38904	13320
3	6692	2.3908	13356
3	6699	2.3932	13392
3	6709	2.39448	13428
3	6719	2.39624	13464
3	6736	2.39992	13500
3	6778	2.40168	13536
3	6795	2.40536	13572
3	6809	2.40712	13608
3	6819	2.4108	13644
3	6829	2.41256	13680
3	6839	2.41624	13716
3	6845	2.418	13752
3	6859	2.42168	13788
3	6865	2.42344	13824
3	6879	2.42712	13860
3	6889	2.42888	13896
3	6899	2.43256	13932
3	6909	2.43432	13968
3	6919	2.438	14004
3	6929	2.43976	14040
3	6943	2.44344	14076
3	6965	2.44888	14112
3	7005	2.45432	14148
3	7031	2.45976	14184
3	7057	2.4652	14220
3	7079	2.47064	14256
3	7097	2.47608	14292
3	7111	2.48152	14328
3	7125	2.48696	14364
3	7135	2.4924	14400
3	7145	2.49784	14436
3	7185	2.50328	14472
3	7195	2.50872	14508
3	7205	2.51416	14544
3	7215	2.5196	14580
3	7225	2.52504	14616
3	7235	2.53048	14652
3	7245	2.53592	14688
3	7255	2.54136	14724
3	7265	2.5468	14760
3	7296	2.55224	14796
3	7327	2.55768	14832
3	7341	2.56312	14868
3	7377	2.56856	14904
3	7391	2.57176	14940
3	7400	2.574	14976
3	7411	2.5772	15012
3	7421	2.57944	15048
3	7431	2.58264	15084
3	7441	2.58488	15120
3	7451	2.58808	15156
3	7461	2.59032	15192
3	7471	2.59352	15228
3	7481	2.59576	15264
3	7491	2.59896	15300
3	7535	2.6012	15336
3	7545	2.6044	15372
3	7562	2.60664	15408
3	7575	2.60984	15444
3	7582	2.61208	15480
3	7596	2.61528	15516
3	7602	2.61752	15552
3	7616	2.62072	15588
3	7622	2.62296	15624
3	7636	2.62616	15660
3	7642	2.6284	15696
3	7656	2.6316	15732
3	7662	2.63384	15768
3	7676	2.63704	15804
3	7682	2.63928	15840
3	7703	2.64472	15876
3	7736	2.65016	15912
3	7754	2.66488	15948
3	7764	2.67032	15984
3	7774	2.67576	16020
3	7784	2.6812	16056
3	7794	2.68664	16092
3	7804	2.69208	16128
3	7814	2.69752	16164
3	7856	2.70296	16200
3	7873	2.7084	16236
3	7887	2.71384	16272
3	7897	2.71928	16308
3	7907	2.72472	16344
3	7917	2.73016	16380
3	7927	2.7356	16416
3	7937	2.74104	16452
3	7947	2.74648	16488
3	7972	2.75192	16524
3	7982	2.75736	16560
3	7992	2.7628	16596
3	8002	2.76824	16632
3	8012	2.77368	16668
3	8022	2.77912	16704
3	8032	2.78456	16740
3	8042	2.79	16776
3	8052	2.79544	16812
3	8096	2.80088	16848
3	8120	2.80632	16884
3	8138	2.81176	16920
3	8148	2.8172	16956
3	8158	2.82264	16992
3	8168	2.82808	17028
3	8178	2.83352	17064
3	8188	2.83896	17100
3	8198	2.8444	17136
3	8208	2.84984	17172
3	8246	2.85528	17208
3	8259	2.86072	17244
3	8376	2.86616	17280
3	8390	2.8716	17316
3	8396	2.87656	17352
3	8402	2.87704	17388
3	8412	2.882	17424
3	8418	2.88248	17460
3	8428	2.88744	17496
3	8434	2.88792	17532
3	8444	2.89288	17568
3	8450	2.89336	17604
3	8460	2.89832	17640
3	8466	2.8988	17676
3	8506	2.90376	17712
3	8512	2.90424	17748
3	8522	2.9092	17784
3	8528	2.90968	17820
3	8538	2.91464	17856
3	8544	2.91512	17892
3	8554	2.92008	17928
3	8560	2.92056	17964
3	8570	2.92552	18000
3	8576	2.926	18036
3	8586	2.93096	18072
3	8592	2.93144	18108
3	8602	2.9364	18144
3	8608	2.93688	18180
3	8618	2.94184	18216
3	8624	2.94232	18252
3	8634	2.94728	18288
3	8640	2.94776	18324
3	8665	2.95272	18360
3	8671	2.9532	18396
3	8681	2.95816	18432
3	8687	2.95864	18468
3	8697	2.9636	18504
3	8703	2.96408	18540
3	8713	2.96904	18576
3	8719	2.96952	18612
3	8729	2.97448	18648
3	8735	2.97496	18684
3	8745	2.97992	18720
3	8751	2.9804	18756
3	8761	2.98536	18792
3	8767	2.98584	18828
3	8777	2.9908	18864
3	8783	2.99128	18900
3	8793	2.99624	18936
3	8799	2.99672	18972
3	8841	3.00168	19008
3	8847	3.00216	19044
3	8864	3.00712	19080
3	8870	3.0076	19116
3	8880	3.01256	19152
3	8886	3.01304	19188
3	8896	3.018	19224
3	8902	3.01848	19260
3	8912	3.02344	19296
3	8918	3.02392	19332
3	8928	3.02888	19368
3	8934	3.02936	19404
3	8944	3.03432	19440
3	8950	3.0348	19476
3	8960	3.03976	19512
3	8966	3.04024	19548
3	8976	3.0452	19584
3	8982	3.04568	19620
3	9011	3.05064	19656
3	9017	3.05112	19692
3	9037	3.05608	19728
3	9043	3.05656	19764
3	9057	3.06152	19800
3	9067	3.062	19836
3	9081	3.06696	19872
3	9087	3.06744	19908
3	9097	3.0724	19944
3	9103	3.07288	19980
3	9113	3.07784	20016
3	9119	3.07832	20052
3	9129	3.08328	20088
3	9135	3.08376	20124
3	9145	3.08872	20160
3	9151	3.0892	20196
3	9161	3.09416	20232
3	9167	3.09464	20268
3	9177	3.0996	20304
3	9217	3.10008	20340
3	9227	3.10504	20376
3	9233	3.10552	20412
3	9250	3.11048	20448
3	9256	3.11096	20484
3	9266	3.11592	20520
3	9272	3.1164	20556
3	9282	3.12136	20592
3	9288	3.12184	20628
3	9306	3.12728	20664
3	9320	3.13272	20700
3	9334	3.13816	20736
3	9348	3.1436	20772
3	9362	3.14904	20808
3	9393	3.15448	20844
3	9411	3.15992	20880
3	9425	3.16536	20916
3	9439	3.1708	20952
3	9453	3.17624	20988
3	9467	3.18168	21024
3	9481	3.18712	21060
3	9494	3.19256	21096
3	9509	3.198	21132
3	9553	3.20344	21168
3	9567	3.20888	21204
3	9581	3.21432	21240
3	9595	3.21976	21276
3	9609	3.2252	21312
3	9623	3.23064	21348
3	9640	3.23608	21384
3	9959	3.31456	21420
3	9973	3.32	21456
3	9979	3.32168	21492
3	9989	3.32544	21528
3	9995	3.32712	21564
3	10005	3.33088	21600
3	10011	3.33256	21636
3	10021	3.33632	21672
3	10027	3.338	21708
3	10037	3.34176	21744
3	10043	3.34344	21780
3	10053	3.3472	21816
3	10059	3.34888	21852
3	10092	3.35264	21888
3	10098	3.35432	21924
3	10122	3.35808	21960
3	10132	3.35976	21996
3	10154	3.3652	22032
3	10168	3.37064	22068
3	10182	3.37608	22104
3	10199	3.38152	22140
3	10213	3.38696	22176
3	10227	3.3924	22212
3	10241	3.39784	22248
3	10289	3.40328	22284
3	10310	3.41336	22320
3	10320	3.4188	22356
3	10330	3.42424	22392
3	10340	3.42968	22428
3	10350	3.43512	22464
3	10360	3.44056	22500
3	10370	3.446	22536
3	10395	3.45144	22572
3	10405	3.45688	22608
3	10415	3.46232	22644
3	10425	3.46776	22680
3	10435	3.4732	22716
3	10445	3.47864	22752
3	10455	3.48408	22788
3	10465	3.48952	22824
3	10475	3.49496	22860
3	10657	3.5692	22896
3	10667	3.57464	22932
3	10677	3.58008	22968
3	10687	3.58552	23004
3	10697	3.59096	23040
3	10707	3.5964	23076
3	10751	3.60184	23112
3	10768	3.60728	23148
3	10778	3.61272	23184
3	10788	3.61816	23220
3	10798	3.6236	23256
3	10808	3.62904	23292
3	10818	3.63448	23328
3	10828	3.63992	23364
3	10838	3.64536	23400
3	10869	3.6508	23436
0	12198	5	1
0	12199	5	3
0	12200	5	3
0	12201	5	3
0	12202	5	2
0	12203	5	1
0	12204	5	3
0	12205	5	3
0	12206	5	3
0	12207	5	2
0	12267	5.05	1
0	12268	5.05	3
0	12269	5.05	3
0	12270	5.05	3
0	12271	5.05	2
0	12321	5.1	1
0	12322	5.1	3
0	12323	5.1	3
0	12324	5.1	3
0	12325	5.1	2
0	12326	5.1	1
0	12327	5.1	3
0	12328	5.1	3
0	12329	5.1	3
0	12330	5.1	2
0	12377	5.15	1
0	12378	5.15	3
0	12379	5.15	3
0	12380	5.15	3
0	12381	5.15	2
0	12431	5.2	1
0	12432	5.2	3
0	12433	5.2	3
0	12434	5.2	3
0	12435	5.2	2
0	12436	5.2	1
0	12437	5.2	3
0	12438	5.2	3
0	12439	5.2	3
0	12440	5.2	2
0	12474	5.25	1
0	12475	5.25	3
0	12476	5.25	3
0	12477	5.25	3
0	12478	5.25	2
0	12489	5.3	1
0	12490	5.3	3
0	12491	5.3	3
0	12492	5.3	3
0	12493	5.3	2
0	12494	5.3	1
0	12495	5.3	3
0	12496	5.3	3
0	12497	5.3	3
0	12498	5.3	2
0	12584	5.35	1
0	12585	5.35	3
0	12586	5.35	3
0	12587	5.35	3
0	12588	5.35	2
0	12638	5.4	1
0	12639	5.4	3
0	12640	5.4	3
0	12641	5.4	3
0	12642	5.4	2
0	12643	5.4	1
0	12644	5.4	3
0	12645	5.4	3
0	12646	5.4	3
0	12647	5.4	2
0	12668	5.45	1
0	12669	5.45	3
0	12670	5.45	3
0	12671	5.45	3
0	12672	5.45	2
0	12722	5.5	1
0	12723	5.5	3
0	12724	5.5	3
0	12725	5.5	3
0	12726	5.5	2
0	12727	5.5	1
0	12728	5.5	3
0	12729	5.5	3
0	12730	5.5	3
0	12731	5.5	2
0	12765	5.55	1
0	12766	5.55	3
0	12767	5.55	3
0	12768	5.55	3
0	12769	5.55	2
0	12806	5.6	1
0	12807	5.6	3
0	12808	5.6	3
0	12809	5.6	3
0	12810	5.6	2
0	12811	5.6	1
0	12812	5.6	3
0	12813	5.6	3
0	12814	5.6	3
0	12815	5.6	2
0	12901	5.65	1
0	12902	5.65	3
0	12903	5.65	3
0	12904	5.65	3
0	12905	5.65	2
0	12929	5.7	1
0	12930	5.7	3
0	12931	5.7	3
0	12932	5.7	3
0	12933	5.7	2
0	12934	5.7	1
0	12935	5.7	3
0	12936	5.7	3
0	12937	5.7	3
0	12938	5.7	2
0	12959	5.75	1
0	12960	5.75	3
0	12961	5.75	3
0	12962	5.75	3
0	12963	5.75	2
0	13013	5.8	1
0	13014	5.8	3
0	13015	5.8	3
0	13016	5.8	3
0	13017	5.8	2
0	13018	5.8	1
0	13019	5.8	3
0	13020	5.8	3
0	13021	5.8	3
0	13022	5.8	2
0	13082	5.85	1
0	13083	5.85	3
0	13084	5.85	3
0	13085	5.85	3
0	13086	5.85	2
0	13123	5.9	1
0	13124	5.9	3
0	13125	5.9	3
0	13126	5.9	3
0	13127	5.9	2
0	13128	5.9	1
0	13129	5.9	3
0	13130	5.9	3
0	13131	5.9	3
0	13132	5.9	2
0	13192	5.95	1
0	13193	5.95	3
0	13194	5.95	3
0	13195	5.95	3
0	13196	5.95	2
0	13220	6	1
0	13221	6	3
0	13222	6	3
0	13223	6	3
0	13224	6	2
0	13225	6	1
0	13226	6	3
0	13227	6	3
0	13228	6	3
0	13229	6	2
0	13250	6.05	1
0	13251	6.05	3
0	13252	6.05	3
0	13253	6.05	3
0	13254	6.05	2
0	13330	6.1	1
0	13331	6.1	3
0	13332	6.1	3
0	13333	6.1	3
0	13334	6.1	2
0	13335	6.1	1
0	13336	6.1	3
0	13337	6.1	3
0	13338	6.1	3
0	13339	6.1	2
0	13399	6.15	1
0	13400	6.15	3
0	13401	6.15	3
0	13402	6.15	3
0	13403	6.15	2
0	13414	6.2	1
0	13415	6.2	3
0	13416	6.2	3
0	13417	6.2	3
0	13418	6.2	2
0	13419	6.2	1
0	13420	6.2	3
0	13421	6.2	3
0	13422	6.2	3
0	13423	6.2	2
0	13483	6.25	1
0	13484	6.25	3
0	13485	6.25	3
0	13486	6.25	3
0	13487	6.25	2
0	13511	6.3	1
0	13512	6.3	3
0	13513	6.3	3
0	13514	6.3	3
0	13515	6.3	2
0	13516	6.3	1
0	13517	6.3	3
0	13518	6.3	3
0	13519	6.3	3
0	13520	6.3	2
0	13567	6.35	1
0	13568	6.35	3
0	13569	6.35	3
0	13570	6.35	3
0	13571	6.35	2
0	13647	6.4	1
0	13648	6.4	3
0	13649	6.4	3
0	13650	6.4	3
0	13651	6.4	2
0	13652	6.4	1
0	13653	6.4	3
0	13654	6.4	3
0	13655	6.4	3
0	13656	6.4	2
0	13690	6.45	1
0	13691	6.45	3
0	13692	6.45	3
0	13693	6.45	3
0	13694	6.45	2
0	13705	6.5	1
0	13706	6.5	3
0	13707	6.5	3
0	13708	6.5	3
0	13709	6.5	2
0	13710	6.5	1
0	13711	6.5	3
0	13712	6.5	3
0	13713	6.5	3
0	13714	6.5	2
0	13774	6.55	1
0	13775	6.55	3
0	13776	6.55	3
0	13777	6.55	3
0	13778	6.55	2
0	13828	6.6	1
0	13829	6.6	3
0	13830	6.6	3
0	13831	6.6	3
0	13832	6.6	2
0	13833	6.6	1
0	13834	6.6	3
0	13835	6.6	3
0	13836	6.6	3
0	13837	6.6	2
0	13884	6.65	1
0	13885	6.65	3
0	13886	6.65	3
0	13887	6.65	3
0	13888	6.65	2
0	13938	6.7	1
0	13939	6.7	3
0	13940	6.7	3
0	13941	6.7	3
0	13942	6.7	2
0	13943	6.7	1
0	13944	6.7	3
0	13945	6.7	3
0	13946	6.7	3
0	13947	6.7	2
0	13981	6.75	1
0	13982	6.75	3
0	13983	6.75	3
0	13984	6.75	3
0	13985	6.75	2
0	13996	6.8	1
0	13997	6.8	3
0	13998	6.8	3
0	13999	6.8	3
0	14000	6.8	2
0	14001	6.8	1
0	14002	6.8	3
0	14003	6.8	3
0	14004	6.8	3
0	14005	6.8	2
0	14091	6.85	1
0	14092	6.85	3
0	14093	6.85	3
0	14094	6.85	3
0	14095	6.85	2
0	14145	6.9	1
0	14146	6.9	3
0	14147	6.9	3
0	14148	6.9	3
0	14149	6.9	2
0	14150	6.9	1
0	14151	6.9	3
0	14152	6.9	3
0	14153	6.9	3
0	14154	6.9	2
0	14175	6.95	1
0	14176	6.95	3
0	14177	6.95	3
0	14178	6.95	3
0	14179	6.95	2
0	14229	7	1
0	14230	7	3
0	14231	7	3
0	14232	7	3
0	14233	7	2
0	14234	7	1
0	14235	7	3
0	14236	7	3
0	14237	7	3
0	14238	7	2
0	14272	7.05	1
0	14273	7.05	3
0	14274	7.05	3
0	14275	7.05	3
0	14276	7.05	2
0	14313	7.1	1
0	14314	7.1	3
0	14315	7.1	3
0	14316	7.1	3
0	14317	7.1	2
0	14318	7.1	1
0	14319	7.1	3
0	14320	7.1	3
0	14321	7.1	3
0	14322	7.1	2
0	14408	7.15	1
0	14409	7.15	3
0	14410	7.15	3
0	14411	7.15	3
0	14412	7.15	2
0	14436	7.2	1
0	14437	7.2	3
0	14438	7.2	3
0	14439	7.2	3
0	14440	7.2	2
0	14441	7.2	1
0	14442	7.2	3
0	14443	7.2	3
0	14444	7.2	3
0	14445	7.2	2
0	14466	7.25	1
0	14467	7.25	3
0	14468	7.25	3
0	14469	7.25	3
0	14470	7.25	2
0	14520	7.3	1
0	14521	7.3	3
0	14522	7.3	3
0	14523	7.3	3
0	14524	7.3	2
0	14525	7.3	1
0	14526	7.3	3
0	14527	7.3	3
0	14528	7.3	3
0	14529	7.3	2
0	14589	7.35	1
0	14590	7.35	3
0	14591	7.35	3
0	14592	7.35	3
0	14593	7.35	2
0	14630	7.4	1
0	14631	7.4	3
0	14632	7.4	3
0	14633	7.4	3
0	14634	7.4	2
0	14635	7.4	1
0	14636	7.4	3
0	14637	7.4	3
0	14638	7.4	3
0	14639	7.4	2
0	14699	7.45	1
0	14700	7.45	3
0	14701	7.45	3
0	14702	7.45	3
0	14703	7.45	2
0	14727	7.5	1
0	14728	7.5	3
0	14729	7.5	3
0	14730	7.5	3
0	14731	7.5	2
0	14732	7.5	1
0	14733	7.5	3
0	14734	7.5	3
0	14735	7.5	3
0	14736	7.5	2
0	14757	7.55	1
0	14758	7.55	3
0	14759	7.55	3
0	14760	7.55	3
0	14761	7.55	2
0	14837	7.6	1
0	14838	7.6	3
0	14839	7.6	3
0	14840	7.6	3
0	14841	7.6	2
0	14842	7.6	1
0	14843	7.6	3
0	14844	7.6	3
0	14845	7.6	3
0	14846	7.6	2
0	14906	7.65	1
0	14907	7.65	3
0	14908	7.65	3
0	14909	7.65	3
0	14910	7.65	2
0	14921	7.7	1
0	14922	7.7	3
0	14923	7.7	3
0	14924	7.7	3
0	14925	7.7	2
0	14926	7.7	1
0	14927	7.7	3
0	14928	7.7	3
0	14929	7.7	3
0	14930	7.7	2
0	14990	7.75	1
0	14991	7.75	3
0	14992	7.75	3
0	14993	7.75	3
0	14994	7.75	2
0	15018	7.8	1
0	15019	7.8	3
0	15020	7.8	3
0	15021	7.8	3
0	15022	7.8	2
0	15023	7.8	1
0	15024	7.8	3
0	15025	7.8	3
0	15026	7.8	3
0	15027	7.8	2
0	15074	7.85	1
0	15075	7.85	3
0	15076	7.85	3
0	15077	7.85	3
0	15078	7.85	2
0	15154	7.9	1
0	15155	7.9	3
0	15156	7.9	3
0	15157	7.9	3
0	15158	7.9	2
0	15159	7.9	1
0	15160	7.9	3
0	15161	7.9	3
0	15162	7.9	3
0	15163	7.9	2
0	15197	7.95	1
0	15198	7.95	3
0	15199	7.95	3
0	15200	7.95	3
0	15201	7.95	2
0	15212	8	1
0	15213	8	3
0	15214	8	3
0	15215	8	3
0	15216	8	2
0	15217	8	1
0	15218	8	3
0	15219	8	3
0	15220	8	3
0	15221	8	2
0	15281	8.05	1
0	15282	8.05	3
0	15283	8.05	3
0	15284	8.05	3
0	15285	8.05	2
0	15361	8.1	1
0	15362	8.1	3
0	15363	8.1	3
0	15364	8.1	3
0	15365	8.1	2
0	15366	8.1	1
0	15367	8.1	3
0	15368	8.1	3
0	15369	8.1	3
0	15370	8.1	2
0	15391	8.15	1
0	15392	8.15	3
0	15393	8.15	3
0	15394	8.15	3
0	15395	8.15	2
0	15445	8.2	1
0	15446	8.2	3
0	15447	8.2	3
0	15448	8.2	3
0	15449	8.2	2
0	15450	8.2	1
0	15451	8.2	3
0	15452	8.2	3
0	15453	8.2	3
0	15454	8.2	2
0	15488	8.25	1
0	15489	8.25	3
0	15490	8.25	3
0	15491	8.25	3
0	15492	8.25	2
0	15503	8.3	1
0	15504	8.3	3
0	15505	8.3	3
0	15506	8.3	3
0	15507	8.3	2
0	15508	8.3	1
0	15509	8.3	3
0	15510	8.3	3
0	15511	8.3	3
0	15512	8.3	2
0	15624	8.35	1
0	15625	8.35	3
0	15626	8.35	3
0	15627	8.35	3
0	15628	8.35	2
0	15652	8.4	1
0	15653	8.4	3
0	15654	8.4	3
0	15655	8.4	3
0	15656	8.4	2
0	15657	8.4	1
0	15658	8.4	3
0	15659	8.4	3
0	15660	8.4	3
0	15661	8.4	2
0	15682	8.45	1
0	15683	8.45	3
0	15684	8.45	3
0	15685	8.45	3
0	15686	8.45	2
0	15736	8.5	1
0	15737	8.5	3
0	15738	8.5	3
0	15739	8.5	3
0	15740	8.5	2
0	15741	8.5	1
0	15742	8.5	3
0	15743	8.5	3
0	15744	8.5	3
0	15745	8.5	2
0	15779	8.55	1
0	15780	8.55	3
0	15781	8.55	3
0	15782	8.55	3
0	15783	8.55	2
0	15846	8.6	1
0	15847	8.6	3
0	15848	8.6	3
0	15849	8.6	3
0	15850	8.6	2
0	15851	8.6	1
0	15852	8.6	3
0	15853	8.6	3
0	15854	8.6	3
0	15855	8.6	2
0	15915	8.65	1
0	15916	8.65	3
0	15917	8.65	3
0	15918	8.65	3
0	15919	8.65	2
0	15943	8.7	1
0	15944	8.7	3
0	15945	8.7	3
0	15946	8.7	3
0	15947	8.7	2
0	15948	8.7	1
0	15949	8.7	3
0	15950	8.7	3
0	15951	8.7	3
0	15952	8.7	2
0	15973	8.75	1
0	15974	8.75	3
0	15975	8.75	3
0	15976	8.75	3
0	15977	8.75	2
0	16027	8.8	1
0	16028	8.8	3
0	16029	8.8	3
0	16030	8.8	3
0	16031	8.8	2
0	16032	8.8	1
0	16033	8.8	3
0	16034	8.8	3
0	16035	8.8	3
0	16036	8.8	2
0	16122	8.85	1
0	16123	8.85	3
0	16124	8.85	3
0	16125	8.85	3
0	16126	8.85	2
0	16137	8.9	1
0	16138	8.9	3
0	16139	8.9	3
0	16140	8.9	3
0	16141	8.9	2
0	16142	8.9	1
0	16143	8.9	3
0	16144	8.9	3
0	16145	8.9	3
0	16146	8.9	2
0	16206	8.95	1
0	16207	8.95	3
0	16208	8.95	3
0	16209	8.95	3
0	16210	8.95	2
0	16234	9	1
0	16235	9	3
0	16236	9	3
0	16237	9	3
0	16238	9	2
0	16239	9	1
0	16240	9	3
0	16241	9	3
0	16242	9	3
0	16243	9	2
0	16264	9.05	1
0	16265	9.05	3
0	16266	9.05	3
0	16267	9.05	3
0	16268	9.05	2
0	16370	9.1	1
0	16371	9.1	3
0	16372	9.1	3
0	16373	9.1	3
0	16374	9.1	2
0	16375	9.1	1
0	16376	9.1	3
0	16377	9.1	3
0	16378	9.1	3
0	16379	9.1	2
0	16413	9.15	1
0	16414	9.15	3
0	16415	9.15	3
0	16416	9.15	3
0	16417	9.15	2
0	16428	9.2	1
0	16429	9.2	3
0	16430	9.2	3
0	16431	9.2	3
0	16432	9.2	2
0	16433	9.2	1
0	16434	9.2	3
0	16435	9.2	3
0	16436	9.2	3
0	16437	9.2	2
0	16497	9.25	1
0	16498	9.25	3
0	16499	9.25	3
0	16500	9.25	3
0	16501	9.25	2
0	16577	9.3	1
0	16578	9.3	3
0	16579	9.3	3
0	16580	9.3	3
0	16581	9.3	2
0	16582	9.3	1
0	16583	9.3	3
0	16584	9.3	3
0	16585	9.3	3
0	16586	9.3	2
0	16607	9.35	1
0	16608	9.35	3
0	16609	9.35	3
0	16610	9.35	3
0	16611	9.35	2
0	16661	9.4	1
0	16662	9.4	3
0	16663	9.4	3
0	16664	9.4	3
0	16665	9.4	2
0	16666	9.4	1
0	16667	9.4	3
0	16668	9.4	3
0	16669	9.4	3
0	16670	9.4	2
0	16704	9.45	1
0	16705	9.45	3
0	16706	9.45	3
0	16707	9.45	3
0	16708	9.45	2
0	16719	9.5	1
0	16720	9.5	3
0	16721	9.5	3
0	16722	9.5	3
0	16723	9.5	2
0	16724	9.5	1
0	16725	9.5	3
0	16726	9.5	3
0	16727	9.5	3
0	16728	9.5	2
0	16840	9.55	1
0	16841	9.55	3
0	16842	9.55	3
0	16843	9.55	3
0	16844	9.55	2
0	16868	9.6	1
0	16869	9.6	3
0	16870	9.6	3
0	16871	9.6	3
0	16872	9.6	2
0	16873	9.6	1
0	16874	9.6	3
0	16875	9.6	3
0	16876	9.6	3
0	16877	9.6	2
0	16898	9.65	1
0	16899	9.65	3
0	16900	9.65	3
0	16901	9.65	3
0	16902	9.65	2
0	16952	9.7	1
0	16953	9.7	3
0	16954	9.7	3
0	16955	9.7	3
0	16956	9.7	2
0	16957	9.7	1
0	16958	9.7	3
0	16959	9.7	3
0	16960	9.7	3
0	16961	9.7	2
0	16995	9.75	1
0	16996	9.75	3
0	16997	9.75	3
0	16998	9.75	3
0	16999	9.75	2
0	17062	9.8	1
0	17063	9.8	3
0	17064	9.8	3
0	17065	9.8	3
0	17066	9.8	2
0	17067	9.8	1
0	17068	9.8	3
0	17069	9.8	3
0	17070	9.8	3
0	17071	9.8	2
0	17131	9.85	1
0	17132	9.85	3
0	17133	9.85	3
0	17134	9.85	3
0	17135	9.85	2
0	17159	9.9	1
0	17160	9.9	3
0	17161	9.9	3
0	17162	9.9	3
0	17163	9.9	2
0	17164	9.9	1
0	17165	9.9	3
0	17166	9.9	3
0	17167	9.9	3
0	17168	9.9	2
0	17189	9.95	1
0	17190	9.95	3
0	17191	9.95	3
0	17192	9.95	3
0	17193	9.95	2
0	17243	10	1
0	17244	10	3
0	17245	10	3
0	17246	10	3
0	17247	10	2
0	17248	10	1
0	17249	10	3
0	17250	10	3
0	17251	10	3
0	17252	10	2

