version 2
run T2-0-20190907-04:37:37-11506
attr configname T2
attr datetime 20190907-04:37:37
attr experiment T2
attr inifile SimV2.ini
attr iterationvars ""
attr iterationvarsf ""
attr measurement ""
attr network NetworkTormV2
attr processid 11506
attr repetition 0
attr replication #0
attr resultdir results
attr runnumber 0
attr seedset 0
param **.mobility.traceFile "\"paths/T2.movements\""
param **.numNodes 5
param **.wirelessIfc.wirelessRange 25m
param **.bluetoothIfc.wirelessRange 25m
param **.numNodes 2
param **.application.usedRNG 1
param **.application.dataGenerationInterval 1ms
param **.application.dataSizeInBytes 10
param **.application.ttl 999999s
param **application.destinationAddr "\"Wf:00:00:00:00:02\""
param **application.destinationBTAddr "\"Bt:00:00:00:00:02\""
param **application.nodesThatGen true
param **application.nodesGenMsg "\"0\""
param **application.startMultipleMsg true
param **application.numMultipleMsg 100
param **application.hopsListSize 50
param **.routingLayer "\"RoutingLayer\""
param **.routing.maximumCacheSize 5000byte
param **.routing.maximumHopCount 25
param **.routing.useTTL false
param **.neighboring.antiEntropyInterval 200ms
param **.neighboring.maximumRandomBackoffDuration 1s
param **.neighboring.delayPerDataMsg 0.1
param **neighboring.usedRNG 2
param **.neighboring.GWAddr "\"02:00:00:00:00:03\""
param **.neighboring.sendWifiFirst true
param **.neighboring.maxLengthGraph 20
param **.wirelessIfc.wirelessRange 15m
param **.wirelessIfc.neighbourScanInterval 50ms
param **.wirelessIfc.bandwidthBitRate 100000bps
param **.wirelessIfc.wirelessHeaderSize 32byte
param **.wirelessIfc.minSSI -90
param **.bluetoothIfc.wirelessRange 15m
param **.bluetoothIfc.neighbourScanInterval 100ms
param **.bluetoothIfc.bandwidthBitRate 100000bps
param **.bluetoothIfc.wirelessHeaderSize 16byte
param **.bluetoothIfc.minSSI -90
param **.mobilityType "\"BonnMotionMobility\""
param **.mobility.traceFile "\"paths/Moves2.movements\""
param **.mobility.nodeId -1

vector 0 NetworkTormV2 neighbourhoodSize:vector ETV
attr source neighbourhoodSize
vector 1 NetworkTormV2 deliveryRatio:vector ETV
attr source sum(totalDataBytesReceived)/sum(totalDataBytesReceivableByAllNodes)
vector 2 NetworkTormV2 dataBytesReceivedSum:vector ETV
attr source sum(dataBytesReceived)
vector 3 NetworkTormV2 totalBytesReceivedSum:vector ETV
attr source sum(totalBytesReceived)
0	16	0.05	1
0	17	0.05	3
0	18	0.05	3
0	19	0.05	3
0	20	0.05	2
0	32	0.1	1
0	33	0.1	3
0	34	0.1	3
0	35	0.1	3
0	36	0.1	2
0	37	0.1	1
0	38	0.1	3
0	39	0.1	3
0	40	0.1	3
0	41	0.1	2
0	161	0.15	1
0	162	0.15	3
0	163	0.15	3
0	164	0.15	3
0	165	0.15	2
0	276	0.2	1
0	277	0.2	3
0	278	0.2	3
0	279	0.2	3
0	280	0.2	2
0	281	0.2	1
0	282	0.2	3
0	283	0.2	3
0	284	0.2	3
0	285	0.2	2
0	306	0.25	1
0	307	0.25	3
0	308	0.25	3
0	309	0.25	3
0	310	0.25	2
0	321	0.3	1
0	322	0.3	3
0	323	0.3	3
0	324	0.3	3
0	325	0.3	2
0	326	0.3	1
0	327	0.3	3
0	328	0.3	3
0	329	0.3	3
0	330	0.3	2
0	351	0.35	1
0	352	0.35	3
0	353	0.35	3
0	354	0.35	3
0	355	0.35	2
0	366	0.4	1
0	367	0.4	3
0	368	0.4	3
0	369	0.4	3
0	370	0.4	2
0	371	0.4	1
0	372	0.4	3
0	373	0.4	3
0	374	0.4	3
0	375	0.4	2
0	396	0.45	1
0	397	0.45	3
0	398	0.45	3
0	399	0.45	3
0	400	0.45	2
0	411	0.5	1
0	412	0.5	3
0	413	0.5	3
0	414	0.5	3
0	415	0.5	2
0	416	0.5	1
0	417	0.5	3
0	418	0.5	3
0	419	0.5	3
0	420	0.5	2
0	441	0.55	1
0	442	0.55	3
0	443	0.55	3
0	444	0.55	3
0	445	0.55	2
0	456	0.6	1
0	457	0.6	3
0	458	0.6	3
0	459	0.6	3
0	460	0.6	2
0	461	0.6	1
0	462	0.6	3
0	463	0.6	3
0	464	0.6	3
0	465	0.6	2
0	486	0.65	1
0	487	0.65	3
0	488	0.65	3
0	489	0.65	3
0	490	0.65	2
0	501	0.7	1
0	502	0.7	3
0	503	0.7	3
0	504	0.7	3
0	505	0.7	2
0	506	0.7	1
0	507	0.7	3
0	508	0.7	3
0	509	0.7	3
0	510	0.7	2
0	531	0.75	1
0	532	0.75	3
0	533	0.75	3
0	534	0.75	3
0	535	0.75	2
0	546	0.8	1
0	547	0.8	3
0	548	0.8	3
0	549	0.8	3
0	550	0.8	2
0	551	0.8	1
0	552	0.8	3
0	553	0.8	3
0	554	0.8	3
0	555	0.8	2
0	576	0.85	1
0	577	0.85	3
0	578	0.85	3
0	579	0.85	3
0	580	0.85	2
0	591	0.9	1
0	592	0.9	3
0	593	0.9	3
0	594	0.9	3
0	595	0.9	2
0	596	0.9	1
0	597	0.9	3
0	598	0.9	3
0	599	0.9	3
0	600	0.9	2
0	621	0.95	1
0	622	0.95	3
0	623	0.95	3
0	624	0.95	3
0	625	0.95	2
0	636	1	1
0	637	1	3
0	638	1	3
0	639	1	3
0	640	1	2
0	641	1	1
0	642	1	3
0	643	1	3
0	644	1	3
0	645	1	2
0	666	1.05	1
0	667	1.05	3
0	668	1.05	3
0	669	1.05	3
0	670	1.05	2
0	681	1.1	1
0	682	1.1	3
0	683	1.1	3
0	684	1.1	3
0	685	1.1	2
0	686	1.1	1
0	687	1.1	3
0	688	1.1	3
0	689	1.1	3
0	690	1.1	2
0	1129	1.15	1
0	1130	1.15	3
0	1131	1.15	3
0	1132	1.15	3
0	1133	1.15	2
0	1240	1.2	1
0	1241	1.2	3
0	1242	1.2	3
0	1243	1.2	3
0	1244	1.2	2
0	1245	1.2	1
0	1246	1.2	3
0	1247	1.2	3
0	1248	1.2	3
0	1249	1.2	2
0	1360	1.25	1
0	1361	1.25	3
0	1362	1.25	3
0	1363	1.25	3
0	1364	1.25	2
0	1465	1.3	1
0	1466	1.3	3
0	1467	1.3	3
0	1468	1.3	3
0	1469	1.3	2
0	1470	1.3	1
0	1471	1.3	3
0	1472	1.3	3
0	1473	1.3	3
0	1474	1.3	2
0	1589	1.35	1
0	1590	1.35	3
0	1591	1.35	3
0	1592	1.35	3
0	1593	1.35	2
0	2049	1.4	1
0	2050	1.4	3
0	2051	1.4	3
0	2052	1.4	3
0	2053	1.4	2
0	2054	1.4	1
0	2055	1.4	3
0	2056	1.4	3
0	2057	1.4	3
0	2058	1.4	2
0	2229	1.45	1
0	2230	1.45	3
0	2231	1.45	3
0	2232	1.45	3
0	2233	1.45	2
0	2392	1.5	1
0	2393	1.5	3
0	2394	1.5	3
0	2395	1.5	3
0	2396	1.5	2
0	2397	1.5	1
0	2398	1.5	3
0	2399	1.5	3
0	2400	1.5	3
0	2401	1.5	2
0	2566	1.55	1
0	2567	1.55	3
0	2568	1.55	3
0	2569	1.55	3
0	2570	1.55	2
0	2839	1.6	1
0	2840	1.6	3
0	2841	1.6	3
0	2842	1.6	3
0	2843	1.6	2
0	2844	1.6	1
0	2845	1.6	3
0	2846	1.6	3
0	2847	1.6	3
0	2848	1.6	2
0	3017	1.65	1
0	3018	1.65	3
0	3019	1.65	3
0	3020	1.65	3
0	3021	1.65	2
0	3158	1.7	1
0	3159	1.7	3
0	3160	1.7	3
0	3161	1.7	3
0	3162	1.7	2
0	3163	1.7	1
0	3164	1.7	3
0	3165	1.7	3
0	3166	1.7	3
0	3167	1.7	2
0	3278	1.75	1
0	3279	1.75	3
0	3280	1.75	3
0	3281	1.75	3
0	3282	1.75	2
0	3389	1.8	1
0	3390	1.8	3
0	3391	1.8	3
0	3392	1.8	3
0	3393	1.8	2
0	3394	1.8	1
0	3395	1.8	3
0	3396	1.8	3
0	3397	1.8	3
0	3398	1.8	2
0	3741	1.85	1
0	3742	1.85	3
0	3743	1.85	3
0	3744	1.85	3
0	3745	1.85	2
0	3908	1.9	1
0	3909	1.9	3
0	3910	1.9	3
0	3911	1.9	3
0	3912	1.9	2
0	3913	1.9	1
0	3914	1.9	3
0	3915	1.9	3
0	3916	1.9	3
0	3917	1.9	2
0	4108	1.95	1
0	4109	1.95	3
0	4110	1.95	3
0	4111	1.95	3
0	4112	1.95	2
1	31	0.1	-nan
1	63	0.101	-nan
1	65	0.102	-nan
1	67	0.103	-nan
1	69	0.104	-nan
1	71	0.105	-nan
1	73	0.106	-nan
1	75	0.107	-nan
1	77	0.108	-nan
1	79	0.109	-nan
1	81	0.11	-nan
1	83	0.111	-nan
1	85	0.112	-nan
1	87	0.113	-nan
1	89	0.114	-nan
1	91	0.115	-nan
1	93	0.116	-nan
1	95	0.117	-nan
1	97	0.118	-nan
1	99	0.119	-nan
1	101	0.12	-nan
1	103	0.121	-nan
1	105	0.122	-nan
1	107	0.123	-nan
1	109	0.124	-nan
1	111	0.125	-nan
1	113	0.126	-nan
1	115	0.127	-nan
1	117	0.128	-nan
1	119	0.129	-nan
1	121	0.13	-nan
1	123	0.131	-nan
1	125	0.132	-nan
1	127	0.133	-nan
1	129	0.134	-nan
1	131	0.135	-nan
1	133	0.136	-nan
1	135	0.137	-nan
1	137	0.138	-nan
1	139	0.139	-nan
1	141	0.14	-nan
1	143	0.141	-nan
1	145	0.142	-nan
1	147	0.143	-nan
1	149	0.144	-nan
1	151	0.145	-nan
1	153	0.146	-nan
1	155	0.147	-nan
1	157	0.148	-nan
1	159	0.149	-nan
1	166	0.15	-nan
1	178	0.151	-nan
1	180	0.152	-nan
1	182	0.153	-nan
1	184	0.154	-nan
1	186	0.155	-nan
1	188	0.156	-nan
1	190	0.157	-nan
1	192	0.158	-nan
1	194	0.159	-nan
1	196	0.16	-nan
1	198	0.161	-nan
1	200	0.162	-nan
1	202	0.163	-nan
1	204	0.164	-nan
1	206	0.165	-nan
1	208	0.166	-nan
1	210	0.167	-nan
1	212	0.168	-nan
1	214	0.169	-nan
1	216	0.17	-nan
1	218	0.171	-nan
1	220	0.172	-nan
1	222	0.173	-nan
1	224	0.174	-nan
1	226	0.175	-nan
1	228	0.176	-nan
1	230	0.177	-nan
1	232	0.178	-nan
1	234	0.179	-nan
1	236	0.18	-nan
1	238	0.181	-nan
1	240	0.182	-nan
1	242	0.183	-nan
1	244	0.184	-nan
1	246	0.185	-nan
1	248	0.186	-nan
1	250	0.187	-nan
1	252	0.188	-nan
1	254	0.189	-nan
1	256	0.19	-nan
1	258	0.191	-nan
1	260	0.192	-nan
1	262	0.193	-nan
1	264	0.194	-nan
1	266	0.195	-nan
1	268	0.196	-nan
1	270	0.197	-nan
1	272	0.198	-nan
1	274	0.199	-nan
2	1058	1.12352	36
2	1078	1.12896	72
2	1088	1.1344	108
2	1094	1.13536	144
2	1108	1.13984	180
2	1122	1.14528	216
2	1147	1.15072	252
2	1157	1.15616	288
2	1167	1.1616	324
2	1177	1.16704	360
2	1187	1.17248	396
2	1197	1.17792	432
2	1207	1.18336	468
2	1217	1.1888	504
2	1227	1.19424	540
2	1237	1.19968	576
2	1277	1.20512	612
2	1287	1.21056	648
2	1297	1.216	684
2	1307	1.22144	720
2	1317	1.22688	756
2	1327	1.23232	792
2	1337	1.23776	828
2	1347	1.2432	864
2	1357	1.24864	900
2	1382	1.25408	936
2	1392	1.25952	972
2	1402	1.26496	1008
2	1412	1.2704	1044
2	1422	1.27584	1080
2	1432	1.28128	1116
2	1442	1.28672	1152
2	1452	1.29216	1188
2	1462	1.2976	1224
2	1502	1.30304	1260
2	1512	1.30848	1296
2	1522	1.31392	1332
2	1532	1.31936	1368
2	1542	1.3248	1404
2	1552	1.33024	1440
2	1562	1.33568	1476
2	1572	1.34112	1512
2	1582	1.34656	1548
2	1631	1.352	1584
2	1665	1.35744	1620
2	1699	1.36288	1656
2	1742	1.36832	1692
2	1858	1.37376	1728
2	1974	1.3792	1764
2	1984	1.3828	1800
2	1994	1.38464	1836
2	2004	1.38824	1872
2	2010	1.3884	1908
2	2016	1.39008	1944
2	2030	1.39384	1980
2	2036	1.39552	2016
2	2046	1.39928	2052
2	2082	1.40096	2088
2	2092	1.40472	2124
2	2098	1.4064	2160
2	2108	1.41016	2196
2	2114	1.41184	2232
2	2124	1.4156	2268
2	2130	1.41728	2304
2	2140	1.42104	2340
2	2146	1.42272	2376
2	2156	1.42648	2412
2	2162	1.42816	2448
2	2172	1.43192	2484
2	2178	1.4336	2520
2	2188	1.43736	2556
2	2194	1.43904	2592
2	2204	1.4428	2628
2	2210	1.44448	2664
2	2220	1.44824	2700
2	2226	1.44992	2736
2	2251	1.45368	2772
2	2257	1.45536	2808
2	2267	1.45912	2844
2	2273	1.4608	2880
2	2283	1.46456	2916
2	2289	1.46624	2952
2	2299	1.47	2988
2	2305	1.47168	3024
2	2315	1.47544	3060
2	2321	1.47712	3096
2	2331	1.48088	3132
2	2337	1.48256	3168
2	2347	1.48632	3204
2	2353	1.488	3240
2	2363	1.49176	3276
2	2369	1.49344	3312
2	2379	1.4972	3348
2	2385	1.49888	3384
2	2425	1.50264	3420
2	2431	1.50432	3456
2	2441	1.50808	3492
2	2447	1.50976	3528
2	2457	1.51352	3564
2	2463	1.5152	3600
2	2473	1.51896	3636
2	2479	1.52064	3672
2	2489	1.5244	3708
2	2495	1.52608	3744
2	2505	1.52984	3780
2	2511	1.53152	3816
2	2521	1.53528	3852
2	2527	1.53696	3888
2	2537	1.54072	3924
2	2543	1.5424	3960
2	2553	1.54616	3996
2	2559	1.54784	4032
2	2606	1.5516	4068
2	2612	1.55328	4104
2	2639	1.55704	4140
2	2645	1.55872	4176
2	2672	1.56248	4212
2	2692	1.56416	4248
2	2702	1.56792	4284
2	2716	1.5696	4320
2	2740	1.57336	4356
2	2746	1.57504	4392
2	2756	1.57816	4428
2	2762	1.5788	4464
2	2772	1.58048	4500
2	2782	1.58424	4536
2	2792	1.58592	4572
2	2802	1.58968	4608
2	2812	1.59136	4644
2	2822	1.59512	4680
2	2832	1.5968	4716
2	2872	1.60056	4752
2	2878	1.60224	4788
2	2888	1.606	4824
2	2894	1.60768	4860
2	2904	1.61144	4896
2	2910	1.61312	4932
2	2920	1.61688	4968
2	2926	1.61856	5004
2	2936	1.62232	5040
2	2942	1.624	5076
2	2952	1.62776	5112
2	2958	1.62944	5148
2	2968	1.6332	5184
2	2974	1.63488	5220
2	2988	1.64032	5256
2	2994	1.6412	5292
2	3004	1.64576	5328
2	3010	1.64664	5364
2	3035	1.6512	5400
2	3041	1.65208	5436
2	3051	1.65664	5472
2	3057	1.65752	5508
2	3067	1.66208	5544
2	3073	1.66296	5580
2	3090	1.6684	5616
2	3104	1.67384	5652
2	3121	1.67928	5688
2	3131	1.68472	5724
2	3141	1.69016	5760
2	3151	1.6956	5796
2	3191	1.70104	5832
2	3201	1.70648	5868
2	3211	1.71192	5904
2	3221	1.71736	5940
2	3231	1.7228	5976
2	3241	1.72824	6012
2	3251	1.73368	6048
2	3261	1.73912	6084
2	3271	1.74456	6120
2	3296	1.75	6156
2	3306	1.75544	6192
2	3316	1.76088	6228
2	3326	1.76632	6264
2	3336	1.77176	6300
2	3346	1.7772	6336
2	3356	1.78264	6372
2	3366	1.78808	6408
2	3376	1.79352	6444
2	3386	1.79896	6480
2	3444	1.8044	6516
2	3485	1.80984	6552
2	3510	1.81528	6588
2	3660	1.82072	6624
2	3674	1.82616	6660
2	3684	1.8316	6696
2	3690	1.83288	6732
2	3700	1.83704	6768
2	3706	1.83832	6804
2	3716	1.84248	6840
2	3722	1.84376	6876
2	3732	1.84792	6912
2	3738	1.8492	6948
2	3763	1.85336	6984
2	3769	1.85464	7020
2	3779	1.8588	7056
2	3785	1.86008	7092
2	3795	1.86424	7128
2	3801	1.86552	7164
2	3811	1.86968	7200
2	3817	1.87096	7236
2	3827	1.87512	7272
2	3833	1.8764	7308
2	3843	1.88056	7344
2	3849	1.88184	7380
2	3859	1.886	7416
2	3865	1.88728	7452
2	3883	1.89272	7488
2	3901	1.89816	7524
2	3949	1.9036	7560
2	3970	1.90904	7596
2	3989	1.91448	7632
2	4007	1.91992	7668
2	4025	1.92536	7704
2	4043	1.9308	7740
2	4061	1.93624	7776
2	4079	1.94168	7812
2	4097	1.94712	7848
2	4133	1.95256	7884
2	4152	1.958	7920
2	4170	1.96344	7956
2	4188	1.96888	7992
2	4205	1.97432	8028
2	4338	1.97976	8064
2	4352	1.9852	8100
2	4366	1.99064	8136
2	4384	1.99608	8172
3	1058	1.12352	36
3	1078	1.12896	72
3	1088	1.1344	108
3	1094	1.13536	144
3	1108	1.13984	180
3	1122	1.14528	216
3	1147	1.15072	252
3	1157	1.15616	288
3	1167	1.1616	324
3	1177	1.16704	360
3	1187	1.17248	396
3	1197	1.17792	432
3	1207	1.18336	468
3	1217	1.1888	504
3	1227	1.19424	540
3	1237	1.19968	576
3	1277	1.20512	612
3	1287	1.21056	648
3	1297	1.216	684
3	1307	1.22144	720
3	1317	1.22688	756
3	1327	1.23232	792
3	1337	1.23776	828
3	1347	1.2432	864
3	1357	1.24864	900
3	1382	1.25408	936
3	1392	1.25952	972
3	1402	1.26496	1008
3	1412	1.2704	1044
3	1422	1.27584	1080
3	1432	1.28128	1116
3	1442	1.28672	1152
3	1452	1.29216	1188
3	1462	1.2976	1224
3	1502	1.30304	1260
3	1512	1.30848	1296
3	1522	1.31392	1332
3	1532	1.31936	1368
3	1542	1.3248	1404
3	1552	1.33024	1440
3	1562	1.33568	1476
3	1572	1.34112	1512
3	1582	1.34656	1548
3	1631	1.352	1584
3	1665	1.35744	1620
3	1699	1.36288	1656
3	1742	1.36832	1692
3	1858	1.37376	1728
3	1974	1.3792	1764
3	1984	1.3828	1800
3	1994	1.38464	1836
3	2004	1.38824	1872
3	2010	1.3884	1908
3	2016	1.39008	1944
3	2030	1.39384	1980
3	2036	1.39552	2016
3	2046	1.39928	2052
3	2082	1.40096	2088
3	2092	1.40472	2124
3	2098	1.4064	2160
3	2108	1.41016	2196
3	2114	1.41184	2232
3	2124	1.4156	2268
3	2130	1.41728	2304
3	2140	1.42104	2340
3	2146	1.42272	2376
3	2156	1.42648	2412
3	2162	1.42816	2448
3	2172	1.43192	2484
3	2178	1.4336	2520
3	2188	1.43736	2556
3	2194	1.43904	2592
3	2204	1.4428	2628
3	2210	1.44448	2664
3	2220	1.44824	2700
3	2226	1.44992	2736
3	2251	1.45368	2772
3	2257	1.45536	2808
3	2267	1.45912	2844
3	2273	1.4608	2880
3	2283	1.46456	2916
3	2289	1.46624	2952
3	2299	1.47	2988
3	2305	1.47168	3024
3	2315	1.47544	3060
3	2321	1.47712	3096
3	2331	1.48088	3132
3	2337	1.48256	3168
3	2347	1.48632	3204
3	2353	1.488	3240
3	2363	1.49176	3276
3	2369	1.49344	3312
3	2379	1.4972	3348
3	2385	1.49888	3384
3	2425	1.50264	3420
3	2431	1.50432	3456
3	2441	1.50808	3492
3	2447	1.50976	3528
3	2457	1.51352	3564
3	2463	1.5152	3600
3	2473	1.51896	3636
3	2479	1.52064	3672
3	2489	1.5244	3708
3	2495	1.52608	3744
3	2505	1.52984	3780
3	2511	1.53152	3816
3	2521	1.53528	3852
3	2527	1.53696	3888
3	2537	1.54072	3924
3	2543	1.5424	3960
3	2553	1.54616	3996
3	2559	1.54784	4032
3	2606	1.5516	4068
3	2612	1.55328	4104
3	2639	1.55704	4140
3	2645	1.55872	4176
3	2672	1.56248	4212
3	2692	1.56416	4248
3	2702	1.56792	4284
3	2716	1.5696	4320
3	2740	1.57336	4356
3	2746	1.57504	4392
3	2756	1.57816	4428
3	2762	1.5788	4464
3	2772	1.58048	4500
3	2782	1.58424	4536
3	2792	1.58592	4572
3	2802	1.58968	4608
3	2812	1.59136	4644
3	2822	1.59512	4680
3	2832	1.5968	4716
3	2872	1.60056	4752
3	2878	1.60224	4788
3	2888	1.606	4824
3	2894	1.60768	4860
3	2904	1.61144	4896
3	2910	1.61312	4932
3	2920	1.61688	4968
3	2926	1.61856	5004
3	2936	1.62232	5040
3	2942	1.624	5076
3	2952	1.62776	5112
3	2958	1.62944	5148
3	2968	1.6332	5184
3	2974	1.63488	5220
3	2988	1.64032	5256
3	2994	1.6412	5292
3	3004	1.64576	5328
3	3010	1.64664	5364
3	3035	1.6512	5400
3	3041	1.65208	5436
3	3051	1.65664	5472
3	3057	1.65752	5508
3	3067	1.66208	5544
3	3073	1.66296	5580
3	3090	1.6684	5616
3	3104	1.67384	5652
3	3121	1.67928	5688
3	3131	1.68472	5724
3	3141	1.69016	5760
3	3151	1.6956	5796
3	3191	1.70104	5832
3	3201	1.70648	5868
3	3211	1.71192	5904
3	3221	1.71736	5940
3	3231	1.7228	5976
3	3241	1.72824	6012
3	3251	1.73368	6048
3	3261	1.73912	6084
3	3271	1.74456	6120
3	3296	1.75	6156
3	3306	1.75544	6192
3	3316	1.76088	6228
3	3326	1.76632	6264
3	3336	1.77176	6300
3	3346	1.7772	6336
3	3356	1.78264	6372
3	3366	1.78808	6408
3	3376	1.79352	6444
3	3386	1.79896	6480
3	3444	1.8044	6516
3	3485	1.80984	6552
3	3510	1.81528	6588
3	3660	1.82072	6624
3	3674	1.82616	6660
3	3684	1.8316	6696
3	3690	1.83288	6732
3	3700	1.83704	6768
3	3706	1.83832	6804
3	3716	1.84248	6840
3	3722	1.84376	6876
3	3732	1.84792	6912
3	3738	1.8492	6948
3	3763	1.85336	6984
3	3769	1.85464	7020
3	3779	1.8588	7056
3	3785	1.86008	7092
3	3795	1.86424	7128
3	3801	1.86552	7164
3	3811	1.86968	7200
3	3817	1.87096	7236
3	3827	1.87512	7272
3	3833	1.8764	7308
3	3843	1.88056	7344
3	3849	1.88184	7380
3	3859	1.886	7416
3	3865	1.88728	7452
3	3883	1.89272	7488
3	3901	1.89816	7524
3	3949	1.9036	7560
3	3970	1.90904	7596
3	3989	1.91448	7632
3	4007	1.91992	7668
3	4025	1.92536	7704
3	4043	1.9308	7740
3	4061	1.93624	7776
3	4079	1.94168	7812
3	4097	1.94712	7848
3	4133	1.95256	7884
3	4152	1.958	7920
3	4170	1.96344	7956
3	4188	1.96888	7992
3	4205	1.97432	8028
3	4338	1.97976	8064
3	4352	1.9852	8100
3	4366	1.99064	8136
3	4384	1.99608	8172

