version 2
run T2-0-20190909-02:30:08-14378
attr configname T2
attr datetime 20190909-02:30:08
attr experiment T2
attr inifile SimV2.ini
attr iterationvars ""
attr iterationvarsf ""
attr measurement ""
attr network NetworkTormV2
attr processid 14378
attr repetition 0
attr replication #0
attr resultdir results
attr runnumber 0
attr seedset 0
param **.mobility.traceFile "\"paths/T2.movements\""
param **.numNodes 5
param **.wirelessIfc.wirelessRange 25m
param **.bluetoothIfc.wirelessRange 25m
param **.numNodes 2
param **.application.usedRNG 1
param **.application.dataGenerationInterval 1ms
param **.application.dataSizeInBytes 10
param **.application.ttl 999999s
param **application.destinationAddr "\"Wf:00:00:00:00:04\""
param **application.destinationBTAddr "\"Bt:00:00:00:00:04\""
param **application.nodesThatGen true
param **application.nodesGenMsg "\"0\""
param **application.startMultipleMsg true
param **application.numMultipleMsg 100
param **application.hopsListSize 50
param **.routingLayer "\"RoutingLayer\""
param **.routing.maximumCacheSize 5000byte
param **.routing.maximumHopCount 25
param **.routing.useTTL false
param **.neighboring.antiEntropyInterval 500ms
param **.neighboring.maximumRandomBackoffDuration 1s
param **.neighboring.delayPerDataMsg 0.1
param **neighboring.usedRNG 2
param **.neighboring.GWAddr "\"02:00:00:00:00:09\""
param **.neighboring.sendWifiFirst true
param **.neighboring.maxLengthGraph 20
param **.wirelessIfc.wirelessRange 15m
param **.wirelessIfc.neighbourScanInterval 50ms
param **.wirelessIfc.bandwidthBitRate 100000bps
param **.wirelessIfc.wirelessHeaderSize 32byte
param **.wirelessIfc.minSSI -90
param **.bluetoothIfc.wirelessRange 15m
param **.bluetoothIfc.neighbourScanInterval 100ms
param **.bluetoothIfc.bandwidthBitRate 100000bps
param **.bluetoothIfc.wirelessHeaderSize 16byte
param **.bluetoothIfc.minSSI -90
param **.mobilityType "\"BonnMotionMobility\""
param **.mobility.traceFile "\"paths/Moves2.movements\""
param **.mobility.nodeId -1

vector 0 NetworkTormV2 neighbourhoodSize:vector ETV
attr source neighbourhoodSize
vector 1 NetworkTormV2 deliveryRatio:vector ETV
attr source sum(totalDataBytesReceived)/sum(totalDataBytesReceivableByAllNodes)
vector 2 NetworkTormV2 dataBytesReceivedSum:vector ETV
attr source sum(dataBytesReceived)
vector 3 NetworkTormV2 totalBytesReceivedSum:vector ETV
attr source sum(totalBytesReceived)
0	16	0.05	1
0	17	0.05	3
0	18	0.05	3
0	19	0.05	3
0	20	0.05	2
0	32	0.1	1
0	33	0.1	3
0	34	0.1	3
0	35	0.1	3
0	36	0.1	2
0	37	0.1	1
0	38	0.1	3
0	39	0.1	3
0	40	0.1	3
0	41	0.1	2
0	161	0.15	1
0	162	0.15	3
0	163	0.15	3
0	164	0.15	3
0	165	0.15	2
0	276	0.2	1
0	277	0.2	3
0	278	0.2	3
0	279	0.2	3
0	280	0.2	2
0	281	0.2	1
0	282	0.2	3
0	283	0.2	3
0	284	0.2	3
0	285	0.2	2
0	306	0.25	1
0	307	0.25	3
0	308	0.25	3
0	309	0.25	3
0	310	0.25	2
0	321	0.3	1
0	322	0.3	3
0	323	0.3	3
0	324	0.3	3
0	325	0.3	2
0	326	0.3	1
0	327	0.3	3
0	328	0.3	3
0	329	0.3	3
0	330	0.3	2
0	351	0.35	1
0	352	0.35	3
0	353	0.35	3
0	354	0.35	3
0	355	0.35	2
0	366	0.4	1
0	367	0.4	3
0	368	0.4	3
0	369	0.4	3
0	370	0.4	2
0	371	0.4	1
0	372	0.4	3
0	373	0.4	3
0	374	0.4	3
0	375	0.4	2
0	396	0.45	1
0	397	0.45	3
0	398	0.45	3
0	399	0.45	3
0	400	0.45	2
0	411	0.5	1
0	412	0.5	3
0	413	0.5	3
0	414	0.5	3
0	415	0.5	2
0	416	0.5	1
0	417	0.5	3
0	418	0.5	3
0	419	0.5	3
0	420	0.5	2
0	441	0.55	1
0	442	0.55	3
0	443	0.55	3
0	444	0.55	3
0	445	0.55	2
0	456	0.6	1
0	457	0.6	3
0	458	0.6	3
0	459	0.6	3
0	460	0.6	2
0	461	0.6	1
0	462	0.6	3
0	463	0.6	3
0	464	0.6	3
0	465	0.6	2
0	486	0.65	1
0	487	0.65	3
0	488	0.65	3
0	489	0.65	3
0	490	0.65	2
0	501	0.7	1
0	502	0.7	3
0	503	0.7	3
0	504	0.7	3
0	505	0.7	2
0	506	0.7	1
0	507	0.7	3
0	508	0.7	3
0	509	0.7	3
0	510	0.7	2
0	531	0.75	1
0	532	0.75	3
0	533	0.75	3
0	534	0.75	3
0	535	0.75	2
0	546	0.8	1
0	547	0.8	3
0	548	0.8	3
0	549	0.8	3
0	550	0.8	2
0	551	0.8	1
0	552	0.8	3
0	553	0.8	3
0	554	0.8	3
0	555	0.8	2
0	576	0.85	1
0	577	0.85	3
0	578	0.85	3
0	579	0.85	3
0	580	0.85	2
0	591	0.9	1
0	592	0.9	3
0	593	0.9	3
0	594	0.9	3
0	595	0.9	2
0	596	0.9	1
0	597	0.9	3
0	598	0.9	3
0	599	0.9	3
0	600	0.9	2
0	621	0.95	1
0	622	0.95	3
0	623	0.95	3
0	624	0.95	3
0	625	0.95	2
0	636	1	1
0	637	1	3
0	638	1	3
0	639	1	3
0	640	1	2
0	641	1	1
0	642	1	3
0	643	1	3
0	644	1	3
0	645	1	2
0	666	1.05	1
0	667	1.05	3
0	668	1.05	3
0	669	1.05	3
0	670	1.05	2
0	681	1.1	1
0	682	1.1	3
0	683	1.1	3
0	684	1.1	3
0	685	1.1	2
0	686	1.1	1
0	687	1.1	3
0	688	1.1	3
0	689	1.1	3
0	690	1.1	2
0	867	1.15	1
0	868	1.15	3
0	869	1.15	3
0	870	1.15	3
0	871	1.15	2
0	882	1.2	1
0	883	1.2	3
0	884	1.2	3
0	885	1.2	3
0	886	1.2	2
0	887	1.2	1
0	888	1.2	3
0	889	1.2	3
0	890	1.2	3
0	891	1.2	2
0	912	1.25	1
0	913	1.25	3
0	914	1.25	3
0	915	1.25	3
0	916	1.25	2
0	927	1.3	1
0	928	1.3	3
0	929	1.3	3
0	930	1.3	3
0	931	1.3	2
0	932	1.3	1
0	933	1.3	3
0	934	1.3	3
0	935	1.3	3
0	936	1.3	2
0	957	1.35	1
0	958	1.35	3
0	959	1.35	3
0	960	1.35	3
0	961	1.35	2
0	972	1.4	1
0	973	1.4	3
0	974	1.4	3
0	975	1.4	3
0	976	1.4	2
0	977	1.4	1
0	978	1.4	3
0	979	1.4	3
0	980	1.4	3
0	981	1.4	2
0	1002	1.45	1
0	1003	1.45	3
0	1004	1.45	3
0	1005	1.45	3
0	1006	1.45	2
0	1017	1.5	1
0	1018	1.5	3
0	1019	1.5	3
0	1020	1.5	3
0	1021	1.5	2
0	1022	1.5	1
0	1023	1.5	3
0	1024	1.5	3
0	1025	1.5	3
0	1026	1.5	2
0	1047	1.55	1
0	1048	1.55	3
0	1049	1.55	3
0	1050	1.55	3
0	1051	1.55	2
0	1062	1.6	1
0	1063	1.6	3
0	1064	1.6	3
0	1065	1.6	3
0	1066	1.6	2
0	1067	1.6	1
0	1068	1.6	3
0	1069	1.6	3
0	1070	1.6	3
0	1071	1.6	2
0	1092	1.65	1
0	1093	1.65	3
0	1094	1.65	3
0	1095	1.65	3
0	1096	1.65	2
0	1263	1.7	1
0	1264	1.7	3
0	1265	1.7	3
0	1266	1.7	3
0	1267	1.7	2
0	1268	1.7	1
0	1269	1.7	3
0	1270	1.7	3
0	1271	1.7	3
0	1272	1.7	2
0	1293	1.75	1
0	1294	1.75	3
0	1295	1.75	3
0	1296	1.75	3
0	1297	1.75	2
0	1308	1.8	1
0	1309	1.8	3
0	1310	1.8	3
0	1311	1.8	3
0	1312	1.8	2
0	1313	1.8	1
0	1314	1.8	3
0	1315	1.8	3
0	1316	1.8	3
0	1317	1.8	2
0	1338	1.85	1
0	1339	1.85	3
0	1340	1.85	3
0	1341	1.85	3
0	1342	1.85	2
0	1353	1.9	1
0	1354	1.9	3
0	1355	1.9	3
0	1356	1.9	3
0	1357	1.9	2
0	1358	1.9	1
0	1359	1.9	3
0	1360	1.9	3
0	1361	1.9	3
0	1362	1.9	2
0	1383	1.95	1
0	1384	1.95	3
0	1385	1.95	3
0	1386	1.95	3
0	1387	1.95	2
0	1398	2	1
0	1399	2	3
0	1400	2	3
0	1401	2	3
0	1402	2	2
0	1403	2	1
0	1404	2	3
0	1405	2	3
0	1406	2	3
0	1407	2	2
0	1428	2.05	1
0	1429	2.05	3
0	1430	2.05	3
0	1431	2.05	3
0	1432	2.05	2
0	1443	2.1	1
0	1444	2.1	3
0	1445	2.1	3
0	1446	2.1	3
0	1447	2.1	2
0	1448	2.1	1
0	1449	2.1	3
0	1450	2.1	3
0	1451	2.1	3
0	1452	2.1	2
0	1473	2.15	1
0	1474	2.15	3
0	1475	2.15	3
0	1476	2.15	3
0	1477	2.15	2
0	1488	2.2	1
0	1489	2.2	3
0	1490	2.2	3
0	1491	2.2	3
0	1492	2.2	2
0	1493	2.2	1
0	1494	2.2	3
0	1495	2.2	3
0	1496	2.2	3
0	1497	2.2	2
0	1936	2.25	1
0	1937	2.25	3
0	1938	2.25	3
0	1939	2.25	3
0	1940	2.25	2
0	2047	2.3	1
0	2048	2.3	3
0	2049	2.3	3
0	2050	2.3	3
0	2051	2.3	2
0	2052	2.3	1
0	2053	2.3	3
0	2054	2.3	3
0	2055	2.3	3
0	2056	2.3	2
0	2167	2.35	1
0	2168	2.35	3
0	2169	2.35	3
0	2170	2.35	3
0	2171	2.35	2
0	2272	2.4	1
0	2273	2.4	3
0	2274	2.4	3
0	2275	2.4	3
0	2276	2.4	2
0	2277	2.4	1
0	2278	2.4	3
0	2279	2.4	3
0	2280	2.4	3
0	2281	2.4	2
0	2396	2.45	1
0	2397	2.45	3
0	2398	2.45	3
0	2399	2.45	3
0	2400	2.45	2
0	2501	2.5	1
0	2502	2.5	3
0	2503	2.5	3
0	2504	2.5	3
0	2505	2.5	2
0	2506	2.5	1
0	2507	2.5	3
0	2508	2.5	3
0	2509	2.5	3
0	2510	2.5	2
0	2627	2.55	1
0	2628	2.55	3
0	2629	2.55	3
0	2630	2.55	3
0	2631	2.55	2
0	2732	2.6	1
0	2733	2.6	3
0	2734	2.6	3
0	2735	2.6	3
0	2736	2.6	2
0	2737	2.6	1
0	2738	2.6	3
0	2739	2.6	3
0	2740	2.6	3
0	2741	2.6	2
0	2852	2.65	1
0	2853	2.65	3
0	2854	2.65	3
0	2855	2.65	3
0	2856	2.65	2
0	2961	2.7	1
0	2962	2.7	3
0	2963	2.7	3
0	2964	2.7	3
0	2965	2.7	2
0	2966	2.7	1
0	2967	2.7	3
0	2968	2.7	3
0	2969	2.7	3
0	2970	2.7	2
0	3081	2.75	1
0	3082	2.75	3
0	3083	2.75	3
0	3084	2.75	3
0	3085	2.75	2
0	3512	2.8	1
0	3513	2.8	3
0	3514	2.8	3
0	3515	2.8	3
0	3516	2.8	2
0	3517	2.8	1
0	3518	2.8	3
0	3519	2.8	3
0	3520	2.8	3
0	3521	2.8	2
0	3632	2.85	1
0	3633	2.85	3
0	3634	2.85	3
0	3635	2.85	3
0	3636	2.85	2
0	3743	2.9	1
0	3744	2.9	3
0	3745	2.9	3
0	3746	2.9	3
0	3747	2.9	2
0	3748	2.9	1
0	3749	2.9	3
0	3750	2.9	3
0	3751	2.9	3
0	3752	2.9	2
0	3863	2.95	1
0	3864	2.95	3
0	3865	2.95	3
0	3866	2.95	3
0	3867	2.95	2
0	3972	3	1
0	3973	3	3
0	3974	3	3
0	3975	3	3
0	3976	3	2
0	3977	3	1
0	3978	3	3
0	3979	3	3
0	3980	3	3
0	3981	3	2
0	4092	3.05	1
0	4093	3.05	3
0	4094	3.05	3
0	4095	3.05	3
0	4096	3.05	2
0	4197	3.1	1
0	4198	3.1	3
0	4199	3.1	3
0	4200	3.1	3
0	4201	3.1	2
0	4202	3.1	1
0	4203	3.1	3
0	4204	3.1	3
0	4205	3.1	3
0	4206	3.1	2
0	4323	3.15	1
0	4324	3.15	3
0	4325	3.15	3
0	4326	3.15	3
0	4327	3.15	2
0	4428	3.2	1
0	4429	3.2	3
0	4430	3.2	3
0	4431	3.2	3
0	4432	3.2	2
0	4433	3.2	1
0	4434	3.2	3
0	4435	3.2	3
0	4436	3.2	3
0	4437	3.2	2
0	4548	3.25	1
0	4549	3.25	3
0	4550	3.25	3
0	4551	3.25	3
0	4552	3.25	2
0	4657	3.3	1
0	4658	3.3	3
0	4659	3.3	3
0	4660	3.3	3
0	4661	3.3	2
0	4662	3.3	1
0	4663	3.3	3
0	4664	3.3	3
0	4665	3.3	3
0	4666	3.3	2
0	5103	3.35	1
0	5104	3.35	3
0	5105	3.35	3
0	5106	3.35	3
0	5107	3.35	2
0	5212	3.4	1
0	5213	3.4	3
0	5214	3.4	3
0	5215	3.4	3
0	5216	3.4	2
0	5217	3.4	1
0	5218	3.4	3
0	5219	3.4	3
0	5220	3.4	3
0	5221	3.4	2
0	5336	3.45	1
0	5337	3.45	3
0	5338	3.45	3
0	5339	3.45	3
0	5340	3.45	2
0	5441	3.5	1
0	5442	3.5	3
0	5443	3.5	3
0	5444	3.5	3
0	5445	3.5	2
0	5446	3.5	1
0	5447	3.5	3
0	5448	3.5	3
0	5449	3.5	3
0	5450	3.5	2
0	5561	3.55	1
0	5562	3.55	3
0	5563	3.55	3
0	5564	3.55	3
0	5565	3.55	2
0	5672	3.6	1
0	5673	3.6	3
0	5674	3.6	3
0	5675	3.6	3
0	5676	3.6	2
0	5677	3.6	1
0	5678	3.6	3
0	5679	3.6	3
0	5680	3.6	3
0	5681	3.6	2
0	5792	3.65	1
0	5793	3.65	3
0	5794	3.65	3
0	5795	3.65	3
0	5796	3.65	2
0	5897	3.7	1
0	5898	3.7	3
0	5899	3.7	3
0	5900	3.7	3
0	5901	3.7	2
0	5902	3.7	1
0	5903	3.7	3
0	5904	3.7	3
0	5905	3.7	3
0	5906	3.7	2
0	6021	3.75	1
0	6022	3.75	3
0	6023	3.75	3
0	6024	3.75	3
0	6025	3.75	2
0	6126	3.8	1
0	6127	3.8	3
0	6128	3.8	3
0	6129	3.8	3
0	6130	3.8	2
0	6131	3.8	1
0	6132	3.8	3
0	6133	3.8	3
0	6134	3.8	3
0	6135	3.8	2
0	6252	3.85	1
0	6253	3.85	3
0	6254	3.85	3
0	6255	3.85	3
0	6256	3.85	2
0	6463	3.9	1
0	6464	3.9	3
0	6465	3.9	3
0	6466	3.9	3
0	6467	3.9	2
0	6468	3.9	1
0	6469	3.9	3
0	6470	3.9	3
0	6471	3.9	3
0	6472	3.9	2
0	6507	3.95	1
0	6508	3.95	3
0	6509	3.95	3
0	6510	3.95	3
0	6511	3.95	2
0	6522	4	1
0	6523	4	3
0	6524	4	3
0	6525	4	3
0	6526	4	2
0	6527	4	1
0	6528	4	3
0	6529	4	3
0	6530	4	3
0	6531	4	2
0	6552	4.05	1
0	6553	4.05	3
0	6554	4.05	3
0	6555	4.05	3
0	6556	4.05	2
0	6567	4.1	1
0	6568	4.1	3
0	6569	4.1	3
0	6570	4.1	3
0	6571	4.1	2
0	6572	4.1	1
0	6573	4.1	3
0	6574	4.1	3
0	6575	4.1	3
0	6576	4.1	2
0	6597	4.15	1
0	6598	4.15	3
0	6599	4.15	3
0	6600	4.15	3
0	6601	4.15	2
0	6612	4.2	1
0	6613	4.2	3
0	6614	4.2	3
0	6615	4.2	3
0	6616	4.2	2
0	6617	4.2	1
0	6618	4.2	3
0	6619	4.2	3
0	6620	4.2	3
0	6621	4.2	2
0	6642	4.25	1
0	6643	4.25	3
0	6644	4.25	3
0	6645	4.25	3
0	6646	4.25	2
0	6657	4.3	1
0	6658	4.3	3
0	6659	4.3	3
0	6660	4.3	3
0	6661	4.3	2
0	6662	4.3	1
0	6663	4.3	3
0	6664	4.3	3
0	6665	4.3	3
0	6666	4.3	2
0	6687	4.35	1
0	6688	4.35	3
0	6689	4.35	3
0	6690	4.35	3
0	6691	4.35	2
0	6702	4.4	1
0	6703	4.4	3
0	6704	4.4	3
0	6705	4.4	3
0	6706	4.4	2
0	6707	4.4	1
0	6708	4.4	3
0	6709	4.4	3
0	6710	4.4	3
0	6711	4.4	2
0	6888	4.45	1
0	6889	4.45	3
0	6890	4.45	3
0	6891	4.45	3
0	6892	4.45	2
0	6903	4.5	1
0	6904	4.5	3
0	6905	4.5	3
0	6906	4.5	3
0	6907	4.5	2
0	6908	4.5	1
0	6909	4.5	3
0	6910	4.5	3
0	6911	4.5	3
0	6912	4.5	2
0	6933	4.55	1
0	6934	4.55	3
0	6935	4.55	3
0	6936	4.55	3
0	6937	4.55	2
0	6948	4.6	1
0	6949	4.6	3
0	6950	4.6	3
0	6951	4.6	3
0	6952	4.6	2
0	6953	4.6	1
0	6954	4.6	3
0	6955	4.6	3
0	6956	4.6	3
0	6957	4.6	2
0	6978	4.65	1
0	6979	4.65	3
0	6980	4.65	3
0	6981	4.65	3
0	6982	4.65	2
0	6993	4.7	1
0	6994	4.7	3
0	6995	4.7	3
0	6996	4.7	3
0	6997	4.7	2
0	6998	4.7	1
0	6999	4.7	3
0	7000	4.7	3
0	7001	4.7	3
0	7002	4.7	2
0	7023	4.75	1
0	7024	4.75	3
0	7025	4.75	3
0	7026	4.75	3
0	7027	4.75	2
0	7038	4.8	1
0	7039	4.8	3
0	7040	4.8	3
0	7041	4.8	3
0	7042	4.8	2
0	7043	4.8	1
0	7044	4.8	3
0	7045	4.8	3
0	7046	4.8	3
0	7047	4.8	2
0	7068	4.85	1
0	7069	4.85	3
0	7070	4.85	3
0	7071	4.85	3
0	7072	4.85	2
0	7083	4.9	1
0	7084	4.9	3
0	7085	4.9	3
0	7086	4.9	3
0	7087	4.9	2
0	7088	4.9	1
0	7089	4.9	3
0	7090	4.9	3
0	7091	4.9	3
0	7092	4.9	2
0	7113	4.95	1
0	7114	4.95	3
0	7115	4.95	3
0	7116	4.95	3
0	7117	4.95	2
0	7284	5	1
0	7285	5	3
0	7286	5	3
0	7287	5	3
0	7288	5	2
0	7289	5	1
0	7290	5	3
0	7291	5	3
0	7292	5	3
0	7293	5	2
0	7314	5.05	1
0	7315	5.05	3
0	7316	5.05	3
0	7317	5.05	3
0	7318	5.05	2
0	7329	5.1	1
0	7330	5.1	3
0	7331	5.1	3
0	7332	5.1	3
0	7333	5.1	2
0	7334	5.1	1
0	7335	5.1	3
0	7336	5.1	3
0	7337	5.1	3
0	7338	5.1	2
0	7359	5.15	1
0	7360	5.15	3
0	7361	5.15	3
0	7362	5.15	3
0	7363	5.15	2
0	7374	5.2	1
0	7375	5.2	3
0	7376	5.2	3
0	7377	5.2	3
0	7378	5.2	2
0	7379	5.2	1
0	7380	5.2	3
0	7381	5.2	3
0	7382	5.2	3
0	7383	5.2	2
0	7404	5.25	1
0	7405	5.25	3
0	7406	5.25	3
0	7407	5.25	3
0	7408	5.25	2
0	7419	5.3	1
0	7420	5.3	3
0	7421	5.3	3
0	7422	5.3	3
0	7423	5.3	2
0	7424	5.3	1
0	7425	5.3	3
0	7426	5.3	3
0	7427	5.3	3
0	7428	5.3	2
0	7449	5.35	1
0	7450	5.35	3
0	7451	5.35	3
0	7452	5.35	3
0	7453	5.35	2
0	7464	5.4	1
0	7465	5.4	3
0	7466	5.4	3
0	7467	5.4	3
0	7468	5.4	2
0	7469	5.4	1
0	7470	5.4	3
0	7471	5.4	3
0	7472	5.4	3
0	7473	5.4	2
0	7494	5.45	1
0	7495	5.45	3
0	7496	5.45	3
0	7497	5.45	3
0	7498	5.45	2
0	7509	5.5	1
0	7510	5.5	3
0	7511	5.5	3
0	7512	5.5	3
0	7513	5.5	2
0	7514	5.5	1
0	7515	5.5	3
0	7516	5.5	3
0	7517	5.5	3
0	7518	5.5	2
0	7695	5.55	1
0	7696	5.55	3
0	7697	5.55	3
0	7698	5.55	3
0	7699	5.55	2
0	7710	5.6	1
0	7711	5.6	3
0	7712	5.6	3
0	7713	5.6	3
0	7714	5.6	2
0	7715	5.6	1
0	7716	5.6	3
0	7717	5.6	3
0	7718	5.6	3
0	7719	5.6	2
0	7740	5.65	1
0	7741	5.65	3
0	7742	5.65	3
0	7743	5.65	3
0	7744	5.65	2
0	7755	5.7	1
0	7756	5.7	3
0	7757	5.7	3
0	7758	5.7	3
0	7759	5.7	2
0	7760	5.7	1
0	7761	5.7	3
0	7762	5.7	3
0	7763	5.7	3
0	7764	5.7	2
0	7785	5.75	1
0	7786	5.75	3
0	7787	5.75	3
0	7788	5.75	3
0	7789	5.75	2
0	7800	5.8	1
0	7801	5.8	3
0	7802	5.8	3
0	7803	5.8	3
0	7804	5.8	2
0	7805	5.8	1
0	7806	5.8	3
0	7807	5.8	3
0	7808	5.8	3
0	7809	5.8	2
0	7830	5.85	1
0	7831	5.85	3
0	7832	5.85	3
0	7833	5.85	3
0	7834	5.85	2
0	7845	5.9	1
0	7846	5.9	3
0	7847	5.9	3
0	7848	5.9	3
0	7849	5.9	2
0	7850	5.9	1
0	7851	5.9	3
0	7852	5.9	3
0	7853	5.9	3
0	7854	5.9	2
0	7875	5.95	1
0	7876	5.95	3
0	7877	5.95	3
0	7878	5.95	3
0	7879	5.95	2
0	7890	6	1
0	7891	6	3
0	7892	6	3
0	7893	6	3
0	7894	6	2
0	7895	6	1
0	7896	6	3
0	7897	6	3
0	7898	6	3
0	7899	6	2
0	7920	6.05	1
0	7921	6.05	3
0	7922	6.05	3
0	7923	6.05	3
0	7924	6.05	2
0	8091	6.1	1
0	8092	6.1	3
0	8093	6.1	3
0	8094	6.1	3
0	8095	6.1	2
0	8096	6.1	1
0	8097	6.1	3
0	8098	6.1	3
0	8099	6.1	3
0	8100	6.1	2
0	8121	6.15	1
0	8122	6.15	3
0	8123	6.15	3
0	8124	6.15	3
0	8125	6.15	2
0	8136	6.2	1
0	8137	6.2	3
0	8138	6.2	3
0	8139	6.2	3
0	8140	6.2	2
0	8141	6.2	1
0	8142	6.2	3
0	8143	6.2	3
0	8144	6.2	3
0	8145	6.2	2
0	8166	6.25	1
0	8167	6.25	3
0	8168	6.25	3
0	8169	6.25	3
0	8170	6.25	2
0	8181	6.3	1
0	8182	6.3	3
0	8183	6.3	3
0	8184	6.3	3
0	8185	6.3	2
0	8186	6.3	1
0	8187	6.3	3
0	8188	6.3	3
0	8189	6.3	3
0	8190	6.3	2
0	8211	6.35	1
0	8212	6.35	3
0	8213	6.35	3
0	8214	6.35	3
0	8215	6.35	2
0	8226	6.4	1
0	8227	6.4	3
0	8228	6.4	3
0	8229	6.4	3
0	8230	6.4	2
0	8231	6.4	1
0	8232	6.4	3
0	8233	6.4	3
0	8234	6.4	3
0	8235	6.4	2
0	8256	6.45	1
0	8257	6.45	3
0	8258	6.45	3
0	8259	6.45	3
0	8260	6.45	2
0	8271	6.5	1
0	8272	6.5	3
0	8273	6.5	3
0	8274	6.5	3
0	8275	6.5	2
0	8276	6.5	1
0	8277	6.5	3
0	8278	6.5	3
0	8279	6.5	3
0	8280	6.5	2
0	8301	6.55	1
0	8302	6.55	3
0	8303	6.55	3
0	8304	6.55	3
0	8305	6.55	2
0	8316	6.6	1
0	8317	6.6	3
0	8318	6.6	3
0	8319	6.6	3
0	8320	6.6	2
0	8321	6.6	1
0	8322	6.6	3
0	8323	6.6	3
0	8324	6.6	3
0	8325	6.6	2
0	8502	6.65	1
0	8503	6.65	3
0	8504	6.65	3
0	8505	6.65	3
0	8506	6.65	2
0	8517	6.7	1
0	8518	6.7	3
0	8519	6.7	3
0	8520	6.7	3
0	8521	6.7	2
0	8522	6.7	1
0	8523	6.7	3
0	8524	6.7	3
0	8525	6.7	3
0	8526	6.7	2
0	8547	6.75	1
0	8548	6.75	3
0	8549	6.75	3
0	8550	6.75	3
0	8551	6.75	2
0	8562	6.8	1
0	8563	6.8	3
0	8564	6.8	3
0	8565	6.8	3
0	8566	6.8	2
0	8567	6.8	1
0	8568	6.8	3
0	8569	6.8	3
0	8570	6.8	3
0	8571	6.8	2
0	8592	6.85	1
0	8593	6.85	3
0	8594	6.85	3
0	8595	6.85	3
0	8596	6.85	2
0	8607	6.9	1
0	8608	6.9	3
0	8609	6.9	3
0	8610	6.9	3
0	8611	6.9	2
0	8612	6.9	1
0	8613	6.9	3
0	8614	6.9	3
0	8615	6.9	3
0	8616	6.9	2
0	8637	6.95	1
0	8638	6.95	3
0	8639	6.95	3
0	8640	6.95	3
0	8641	6.95	2
0	8652	7	1
0	8653	7	3
0	8654	7	3
0	8655	7	3
0	8656	7	2
0	8657	7	1
0	8658	7	3
0	8659	7	3
0	8660	7	3
0	8661	7	2
0	8682	7.05	1
0	8683	7.05	3
0	8684	7.05	3
0	8685	7.05	3
0	8686	7.05	2
0	8697	7.1	1
0	8698	7.1	3
0	8699	7.1	3
0	8700	7.1	3
0	8701	7.1	2
0	8702	7.1	1
0	8703	7.1	3
0	8704	7.1	3
0	8705	7.1	3
0	8706	7.1	2
0	8727	7.15	1
0	8728	7.15	3
0	8729	7.15	3
0	8730	7.15	3
0	8731	7.15	2
0	8898	7.2	1
0	8899	7.2	3
0	8900	7.2	3
0	8901	7.2	3
0	8902	7.2	2
0	8903	7.2	1
0	8904	7.2	3
0	8905	7.2	3
0	8906	7.2	3
0	8907	7.2	2
0	8928	7.25	1
0	8929	7.25	3
0	8930	7.25	3
0	8931	7.25	3
0	8932	7.25	2
0	8943	7.3	1
0	8944	7.3	3
0	8945	7.3	3
0	8946	7.3	3
0	8947	7.3	2
0	8948	7.3	1
0	8949	7.3	3
0	8950	7.3	3
0	8951	7.3	3
0	8952	7.3	2
0	8973	7.35	1
0	8974	7.35	3
0	8975	7.35	3
0	8976	7.35	3
0	8977	7.35	2
0	8988	7.4	1
0	8989	7.4	3
0	8990	7.4	3
0	8991	7.4	3
0	8992	7.4	2
0	8993	7.4	1
0	8994	7.4	3
0	8995	7.4	3
0	8996	7.4	3
0	8997	7.4	2
0	9018	7.45	1
0	9019	7.45	3
0	9020	7.45	3
0	9021	7.45	3
0	9022	7.45	2
0	9033	7.5	1
0	9034	7.5	3
0	9035	7.5	3
0	9036	7.5	3
0	9037	7.5	2
0	9038	7.5	1
0	9039	7.5	3
0	9040	7.5	3
0	9041	7.5	3
0	9042	7.5	2
0	9063	7.55	1
0	9064	7.55	3
0	9065	7.55	3
0	9066	7.55	3
0	9067	7.55	2
0	9078	7.6	1
0	9079	7.6	3
0	9080	7.6	3
0	9081	7.6	3
0	9082	7.6	2
0	9083	7.6	1
0	9084	7.6	3
0	9085	7.6	3
0	9086	7.6	3
0	9087	7.6	2
0	9108	7.65	1
0	9109	7.65	3
0	9110	7.65	3
0	9111	7.65	3
0	9112	7.65	2
0	9123	7.7	1
0	9124	7.7	3
0	9125	7.7	3
0	9126	7.7	3
0	9127	7.7	2
0	9128	7.7	1
0	9129	7.7	3
0	9130	7.7	3
0	9131	7.7	3
0	9132	7.7	2
0	9309	7.75	1
0	9310	7.75	3
0	9311	7.75	3
0	9312	7.75	3
0	9313	7.75	2
0	9324	7.8	1
0	9325	7.8	3
0	9326	7.8	3
0	9327	7.8	3
0	9328	7.8	2
0	9329	7.8	1
0	9330	7.8	3
0	9331	7.8	3
0	9332	7.8	3
0	9333	7.8	2
0	9354	7.85	1
0	9355	7.85	3
0	9356	7.85	3
0	9357	7.85	3
0	9358	7.85	2
0	9369	7.9	1
0	9370	7.9	3
0	9371	7.9	3
0	9372	7.9	3
0	9373	7.9	2
0	9374	7.9	1
0	9375	7.9	3
0	9376	7.9	3
0	9377	7.9	3
0	9378	7.9	2
0	9399	7.95	1
0	9400	7.95	3
0	9401	7.95	3
0	9402	7.95	3
0	9403	7.95	2
0	9414	8	1
0	9415	8	3
0	9416	8	3
0	9417	8	3
0	9418	8	2
0	9419	8	1
0	9420	8	3
0	9421	8	3
0	9422	8	3
0	9423	8	2
0	9444	8.05	1
0	9445	8.05	3
0	9446	8.05	3
0	9447	8.05	3
0	9448	8.05	2
0	9459	8.1	1
0	9460	8.1	3
0	9461	8.1	3
0	9462	8.1	3
0	9463	8.1	2
0	9464	8.1	1
0	9465	8.1	3
0	9466	8.1	3
0	9467	8.1	3
0	9468	8.1	2
0	9489	8.15	1
0	9490	8.15	3
0	9491	8.15	3
0	9492	8.15	3
0	9493	8.15	2
0	9504	8.2	1
0	9505	8.2	3
0	9506	8.2	3
0	9507	8.2	3
0	9508	8.2	2
0	9509	8.2	1
0	9510	8.2	3
0	9511	8.2	3
0	9512	8.2	3
0	9513	8.2	2
0	9534	8.25	1
0	9535	8.25	3
0	9536	8.25	3
0	9537	8.25	3
0	9538	8.25	2
0	9705	8.3	1
0	9706	8.3	3
0	9707	8.3	3
0	9708	8.3	3
0	9709	8.3	2
0	9710	8.3	1
0	9711	8.3	3
0	9712	8.3	3
0	9713	8.3	3
0	9714	8.3	2
0	9735	8.35	1
0	9736	8.35	3
0	9737	8.35	3
0	9738	8.35	3
0	9739	8.35	2
0	9750	8.4	1
0	9751	8.4	3
0	9752	8.4	3
0	9753	8.4	3
0	9754	8.4	2
0	9755	8.4	1
0	9756	8.4	3
0	9757	8.4	3
0	9758	8.4	3
0	9759	8.4	2
0	9780	8.45	1
0	9781	8.45	3
0	9782	8.45	3
0	9783	8.45	3
0	9784	8.45	2
0	9795	8.5	1
0	9796	8.5	3
0	9797	8.5	3
0	9798	8.5	3
0	9799	8.5	2
0	9800	8.5	1
0	9801	8.5	3
0	9802	8.5	3
0	9803	8.5	3
0	9804	8.5	2
0	9825	8.55	1
0	9826	8.55	3
0	9827	8.55	3
0	9828	8.55	3
0	9829	8.55	2
0	9840	8.6	1
0	9841	8.6	3
0	9842	8.6	3
0	9843	8.6	3
0	9844	8.6	2
0	9845	8.6	1
0	9846	8.6	3
0	9847	8.6	3
0	9848	8.6	3
0	9849	8.6	2
0	9870	8.65	1
0	9871	8.65	3
0	9872	8.65	3
0	9873	8.65	3
0	9874	8.65	2
0	9885	8.7	1
0	9886	8.7	3
0	9887	8.7	3
0	9888	8.7	3
0	9889	8.7	2
0	9890	8.7	1
0	9891	8.7	3
0	9892	8.7	3
0	9893	8.7	3
0	9894	8.7	2
0	9915	8.75	1
0	9916	8.75	3
0	9917	8.75	3
0	9918	8.75	3
0	9919	8.75	2
0	9930	8.8	1
0	9931	8.8	3
0	9932	8.8	3
0	9933	8.8	3
0	9934	8.8	2
0	9935	8.8	1
0	9936	8.8	3
0	9937	8.8	3
0	9938	8.8	3
0	9939	8.8	2
0	10116	8.85	1
0	10117	8.85	3
0	10118	8.85	3
0	10119	8.85	3
0	10120	8.85	2
0	10131	8.9	1
0	10132	8.9	3
0	10133	8.9	3
0	10134	8.9	3
0	10135	8.9	2
0	10136	8.9	1
0	10137	8.9	3
0	10138	8.9	3
0	10139	8.9	3
0	10140	8.9	2
0	10161	8.95	1
0	10162	8.95	3
0	10163	8.95	3
0	10164	8.95	3
0	10165	8.95	2
0	10176	9	1
0	10177	9	3
0	10178	9	3
0	10179	9	3
0	10180	9	2
0	10181	9	1
0	10182	9	3
0	10183	9	3
0	10184	9	3
0	10185	9	2
0	10206	9.05	1
0	10207	9.05	3
0	10208	9.05	3
0	10209	9.05	3
0	10210	9.05	2
0	10221	9.1	1
0	10222	9.1	3
0	10223	9.1	3
0	10224	9.1	3
0	10225	9.1	2
0	10226	9.1	1
0	10227	9.1	3
0	10228	9.1	3
0	10229	9.1	3
0	10230	9.1	2
0	10251	9.15	1
0	10252	9.15	3
0	10253	9.15	3
0	10254	9.15	3
0	10255	9.15	2
0	10266	9.2	1
0	10267	9.2	3
0	10268	9.2	3
0	10269	9.2	3
0	10270	9.2	2
0	10271	9.2	1
0	10272	9.2	3
0	10273	9.2	3
0	10274	9.2	3
0	10275	9.2	2
0	10296	9.25	1
0	10297	9.25	3
0	10298	9.25	3
0	10299	9.25	3
0	10300	9.25	2
0	10311	9.3	1
0	10312	9.3	3
0	10313	9.3	3
0	10314	9.3	3
0	10315	9.3	2
0	10316	9.3	1
0	10317	9.3	3
0	10318	9.3	3
0	10319	9.3	3
0	10320	9.3	2
0	10341	9.35	1
0	10342	9.35	3
0	10343	9.35	3
0	10344	9.35	3
0	10345	9.35	2
0	10512	9.4	1
0	10513	9.4	3
0	10514	9.4	3
0	10515	9.4	3
0	10516	9.4	2
0	10517	9.4	1
0	10518	9.4	3
0	10519	9.4	3
0	10520	9.4	3
0	10521	9.4	2
0	10542	9.45	1
0	10543	9.45	3
0	10544	9.45	3
0	10545	9.45	3
0	10546	9.45	2
0	10557	9.5	1
0	10558	9.5	3
0	10559	9.5	3
0	10560	9.5	3
0	10561	9.5	2
0	10562	9.5	1
0	10563	9.5	3
0	10564	9.5	3
0	10565	9.5	3
0	10566	9.5	2
0	10587	9.55	1
0	10588	9.55	3
0	10589	9.55	3
0	10590	9.55	3
0	10591	9.55	2
0	10602	9.6	1
0	10603	9.6	3
0	10604	9.6	3
0	10605	9.6	3
0	10606	9.6	2
0	10607	9.6	1
0	10608	9.6	3
0	10609	9.6	3
0	10610	9.6	3
0	10611	9.6	2
0	10632	9.65	1
0	10633	9.65	3
0	10634	9.65	3
0	10635	9.65	3
0	10636	9.65	2
0	10647	9.7	1
0	10648	9.7	3
0	10649	9.7	3
0	10650	9.7	3
0	10651	9.7	2
0	10652	9.7	1
0	10653	9.7	3
0	10654	9.7	3
0	10655	9.7	3
0	10656	9.7	2
0	10677	9.75	1
0	10678	9.75	3
0	10679	9.75	3
0	10680	9.75	3
0	10681	9.75	2
0	10692	9.8	1
0	10693	9.8	3
0	10694	9.8	3
0	10695	9.8	3
0	10696	9.8	2
0	10697	9.8	1
0	10698	9.8	3
0	10699	9.8	3
0	10700	9.8	3
0	10701	9.8	2
0	10722	9.85	1
0	10723	9.85	3
0	10724	9.85	3
0	10725	9.85	3
0	10726	9.85	2
0	10737	9.9	1
0	10738	9.9	3
0	10739	9.9	3
0	10740	9.9	3
0	10741	9.9	2
0	10742	9.9	1
0	10743	9.9	3
0	10744	9.9	3
0	10745	9.9	3
0	10746	9.9	2
0	10923	9.95	1
0	10924	9.95	3
0	10925	9.95	3
0	10926	9.95	3
0	10927	9.95	2
0	10938	10	1
0	10939	10	3
0	10940	10	3
0	10941	10	3
0	10942	10	2
0	10943	10	1
0	10944	10	3
0	10945	10	3
0	10946	10	3
0	10947	10	2
1	31	0.1	-nan
1	63	0.101	-nan
1	65	0.102	-nan
1	67	0.103	-nan
1	69	0.104	-nan
1	71	0.105	-nan
1	73	0.106	-nan
1	75	0.107	-nan
1	77	0.108	-nan
1	79	0.109	-nan
1	81	0.11	-nan
1	83	0.111	-nan
1	85	0.112	-nan
1	87	0.113	-nan
1	89	0.114	-nan
1	91	0.115	-nan
1	93	0.116	-nan
1	95	0.117	-nan
1	97	0.118	-nan
1	99	0.119	-nan
1	101	0.12	-nan
1	103	0.121	-nan
1	105	0.122	-nan
1	107	0.123	-nan
1	109	0.124	-nan
1	111	0.125	-nan
1	113	0.126	-nan
1	115	0.127	-nan
1	117	0.128	-nan
1	119	0.129	-nan
1	121	0.13	-nan
1	123	0.131	-nan
1	125	0.132	-nan
1	127	0.133	-nan
1	129	0.134	-nan
1	131	0.135	-nan
1	133	0.136	-nan
1	135	0.137	-nan
1	137	0.138	-nan
1	139	0.139	-nan
1	141	0.14	-nan
1	143	0.141	-nan
1	145	0.142	-nan
1	147	0.143	-nan
1	149	0.144	-nan
1	151	0.145	-nan
1	153	0.146	-nan
1	155	0.147	-nan
1	157	0.148	-nan
1	159	0.149	-nan
1	166	0.15	-nan
1	178	0.151	-nan
1	180	0.152	-nan
1	182	0.153	-nan
1	184	0.154	-nan
1	186	0.155	-nan
1	188	0.156	-nan
1	190	0.157	-nan
1	192	0.158	-nan
1	194	0.159	-nan
1	196	0.16	-nan
1	198	0.161	-nan
1	200	0.162	-nan
1	202	0.163	-nan
1	204	0.164	-nan
1	206	0.165	-nan
1	208	0.166	-nan
1	210	0.167	-nan
1	212	0.168	-nan
1	214	0.169	-nan
1	216	0.17	-nan
1	218	0.171	-nan
1	220	0.172	-nan
1	222	0.173	-nan
1	224	0.174	-nan
1	226	0.175	-nan
1	228	0.176	-nan
1	230	0.177	-nan
1	232	0.178	-nan
1	234	0.179	-nan
1	236	0.18	-nan
1	238	0.181	-nan
1	240	0.182	-nan
1	242	0.183	-nan
1	244	0.184	-nan
1	246	0.185	-nan
1	248	0.186	-nan
1	250	0.187	-nan
1	252	0.188	-nan
1	254	0.189	-nan
1	256	0.19	-nan
1	258	0.191	-nan
1	260	0.192	-nan
1	262	0.193	-nan
1	264	0.194	-nan
1	266	0.195	-nan
1	268	0.196	-nan
1	270	0.197	-nan
1	272	0.198	-nan
1	274	0.199	-nan
2	1865	2.22352	36
2	1885	2.22896	72
2	1895	2.2344	108
2	1901	2.23536	144
2	1915	2.23984	180
2	1929	2.24528	216
2	1954	2.25072	252
2	1964	2.25616	288
2	1974	2.2616	324
2	1984	2.26704	360
2	1994	2.27248	396
2	2004	2.27792	432
2	2014	2.28336	468
2	2024	2.2888	504
2	2034	2.29424	540
2	2044	2.29968	576
2	2084	2.30512	612
2	2094	2.31056	648
2	2104	2.316	684
2	2114	2.32144	720
2	2124	2.32688	756
2	2134	2.33232	792
2	2144	2.33776	828
2	2154	2.3432	864
2	2164	2.34864	900
2	2189	2.35408	936
2	2199	2.35952	972
2	2209	2.36496	1008
2	2219	2.3704	1044
2	2229	2.37584	1080
2	2239	2.38128	1116
2	2249	2.38672	1152
2	2259	2.39216	1188
2	2269	2.3976	1224
2	2309	2.40304	1260
2	2319	2.40848	1296
2	2329	2.41392	1332
2	2339	2.41936	1368
2	2349	2.4248	1404
2	2359	2.43024	1440
2	2369	2.43568	1476
2	2379	2.44112	1512
2	2389	2.44656	1548
2	2414	2.452	1584
2	2424	2.45744	1620
2	2434	2.46288	1656
2	2444	2.46832	1692
2	2454	2.47376	1728
2	2464	2.4792	1764
2	2474	2.48464	1800
2	2484	2.49008	1836
2	2494	2.49552	1872
2	2534	2.50096	1908
2	2544	2.5064	1944
2	2554	2.51184	1980
2	2564	2.51728	2016
2	2574	2.52272	2052
2	2584	2.52816	2088
2	2594	2.5336	2124
2	2604	2.53904	2160
2	2614	2.54448	2196
2	2624	2.54992	2232
2	2649	2.55536	2268
2	2659	2.5608	2304
2	2669	2.56624	2340
2	2679	2.57168	2376
2	2689	2.57712	2412
2	2699	2.58256	2448
2	2709	2.588	2484
2	2719	2.59344	2520
2	2729	2.59888	2556
2	2769	2.60432	2592
2	2779	2.60976	2628
2	2789	2.6152	2664
2	2799	2.62064	2700
2	2809	2.62608	2736
2	2819	2.63152	2772
2	2829	2.63696	2808
2	2839	2.6424	2844
2	2849	2.64784	2880
2	2874	2.65328	2916
2	2884	2.65872	2952
2	2894	2.66416	2988
2	2904	2.6696	3024
2	2914	2.67504	3060
2	2924	2.68048	3096
2	2934	2.68592	3132
2	2944	2.69136	3168
2	2954	2.6968	3204
2	2994	2.70224	3240
2	3004	2.70768	3276
2	3014	2.71312	3312
2	3024	2.71856	3348
2	3034	2.724	3384
2	3044	2.72944	3420
2	3054	2.73488	3456
2	3064	2.74032	3492
2	3074	2.74576	3528
2	3123	2.7512	3564
2	3157	2.75664	3600
2	3191	2.76208	3636
2	3481	2.7828	3672
2	3495	2.79048	3708
2	3505	2.79592	3744
2	3545	2.80136	3780
2	3555	2.8068	3816
2	3565	2.81224	3852
2	3575	2.81768	3888
2	3585	2.82312	3924
2	3595	2.82856	3960
2	3605	2.834	3996
2	3615	2.83944	4032
2	3625	2.84488	4068
2	3650	2.85032	4104
2	3660	2.85576	4140
2	3670	2.8612	4176
2	3680	2.86664	4212
2	3690	2.87208	4248
2	3700	2.87752	4284
2	3710	2.88296	4320
2	3720	2.8884	4356
2	3730	2.89384	4392
2	3740	2.89928	4428
2	3780	2.90472	4464
2	3790	2.91016	4500
2	3800	2.9156	4536
2	3810	2.92104	4572
2	3820	2.92648	4608
2	3830	2.93192	4644
2	3840	2.93736	4680
2	3850	2.9428	4716
2	3860	2.94824	4752
2	3885	2.95368	4788
2	3895	2.95912	4824
2	3905	2.96456	4860
2	3915	2.97	4896
2	3925	2.97544	4932
2	3935	2.98088	4968
2	3945	2.98632	5004
2	3955	2.99176	5040
2	3965	2.9972	5076
2	4005	3.00264	5112
2	4015	3.00808	5148
2	4025	3.01352	5184
2	4035	3.01896	5220
2	4045	3.0244	5256
2	4055	3.02984	5292
2	4065	3.03528	5328
2	4075	3.04072	5364
2	4085	3.04616	5400
2	4110	3.0516	5436
2	4120	3.05704	5472
2	4130	3.06248	5508
2	4140	3.06792	5544
2	4150	3.07336	5580
2	4160	3.0788	5616
2	4170	3.08424	5652
2	4180	3.08968	5688
2	4190	3.09512	5724
2	4230	3.10056	5760
2	4240	3.106	5796
2	4250	3.11144	5832
2	4260	3.11688	5868
2	4270	3.12232	5904
2	4280	3.12776	5940
2	4290	3.1332	5976
2	4300	3.13864	6012
2	4310	3.14408	6048
2	4320	3.14952	6084
2	4345	3.15496	6120
2	4355	3.1604	6156
2	4365	3.16584	6192
2	4375	3.17128	6228
2	4385	3.17672	6264
2	4395	3.18216	6300
2	4405	3.1876	6336
2	4415	3.19304	6372
2	4425	3.19848	6408
2	4465	3.20392	6444
2	4475	3.20936	6480
2	4485	3.2148	6516
2	4495	3.22024	6552
2	4505	3.22568	6588
2	4515	3.23112	6624
2	4525	3.23656	6660
2	4535	3.242	6696
2	4545	3.24744	6732
2	4570	3.25288	6768
2	4580	3.25832	6804
2	4590	3.26376	6840
2	4600	3.2692	6876
2	4610	3.27464	6912
2	4620	3.28008	6948
2	4630	3.28552	6984
2	4640	3.29096	7020
2	4650	3.2964	7056
2	4714	3.30184	7092
2	4748	3.30728	7128
2	4775	3.31272	7164
2	4807	3.31816	7200
2	5025	3.3236	7236
2	5072	3.3384	7272
2	5086	3.34384	7308
2	5100	3.34928	7344
2	5129	3.35472	7380
2	5139	3.36016	7416
2	5149	3.3656	7452
2	5159	3.37104	7488
2	5169	3.37648	7524
2	5179	3.38192	7560
2	5189	3.38736	7596
2	5199	3.3928	7632
2	5209	3.39824	7668
2	5249	3.40368	7704
2	5259	3.40912	7740
2	5269	3.41456	7776
2	5279	3.42	7812
2	5289	3.42544	7848
2	5299	3.43088	7884
2	5309	3.43632	7920
2	5319	3.44176	7956
2	5329	3.4472	7992
2	5354	3.45264	8028
2	5364	3.45808	8064
2	5374	3.46352	8100
2	5384	3.46896	8136
2	5394	3.4744	8172
2	5404	3.47984	8208
2	5414	3.48528	8244
2	5424	3.49072	8280
2	5434	3.49616	8316
2	5474	3.5016	8352
2	5484	3.50704	8388
2	5494	3.51248	8424
2	5504	3.51792	8460
2	5514	3.52336	8496
2	5524	3.5288	8532
2	5534	3.53424	8568
2	5544	3.53968	8604
2	5554	3.54512	8640
2	5579	3.55056	8676
2	5589	3.556	8712
2	5599	3.56144	8748
2	5609	3.56688	8784
2	5619	3.57232	8820
2	5629	3.57776	8856
2	5639	3.5832	8892
2	5649	3.58864	8928
2	5659	3.59408	8964
2	5669	3.59952	9000
2	5709	3.60496	9036
2	5719	3.6104	9072
2	5729	3.61584	9108
2	5739	3.62128	9144
2	5749	3.62672	9180
2	5759	3.63216	9216
2	5769	3.6376	9252
2	5779	3.64304	9288
2	5789	3.64848	9324
2	5814	3.65392	9360
2	5824	3.65936	9396
2	5834	3.6648	9432
2	5844	3.67024	9468
2	5854	3.67568	9504
2	5864	3.68112	9540
2	5874	3.68656	9576
2	5884	3.692	9612
2	5894	3.69744	9648
2	5934	3.70288	9684
2	5944	3.70832	9720
2	5954	3.71376	9756
2	5964	3.7192	9792
2	5974	3.72464	9828
2	5984	3.73008	9864
2	5994	3.73552	9900
2	6004	3.74096	9936
2	6014	3.7464	9972
2	6039	3.75184	10008
2	6049	3.75728	10044
2	6059	3.76272	10080
2	6069	3.76816	10116
2	6079	3.7736	10152
2	6089	3.77904	10188
2	6099	3.78448	10224
2	6109	3.78992	10260
2	6119	3.79536	10296
2	6159	3.8008	10332
2	6169	3.80624	10368
2	6179	3.81168	10404
2	6189	3.81712	10440
2	6199	3.82256	10476
2	6209	3.828	10512
2	6219	3.83344	10548
2	6229	3.83888	10584
2	6239	3.84432	10620
2	6249	3.84976	10656
2	6319	3.8552	10692
2	6350	3.86064	10728
2	6381	3.86608	10764
2	6500	3.90608	10800
3	1865	2.22352	36
3	1885	2.22896	72
3	1895	2.2344	108
3	1901	2.23536	144
3	1915	2.23984	180
3	1929	2.24528	216
3	1954	2.25072	252
3	1964	2.25616	288
3	1974	2.2616	324
3	1984	2.26704	360
3	1994	2.27248	396
3	2004	2.27792	432
3	2014	2.28336	468
3	2024	2.2888	504
3	2034	2.29424	540
3	2044	2.29968	576
3	2084	2.30512	612
3	2094	2.31056	648
3	2104	2.316	684
3	2114	2.32144	720
3	2124	2.32688	756
3	2134	2.33232	792
3	2144	2.33776	828
3	2154	2.3432	864
3	2164	2.34864	900
3	2189	2.35408	936
3	2199	2.35952	972
3	2209	2.36496	1008
3	2219	2.3704	1044
3	2229	2.37584	1080
3	2239	2.38128	1116
3	2249	2.38672	1152
3	2259	2.39216	1188
3	2269	2.3976	1224
3	2309	2.40304	1260
3	2319	2.40848	1296
3	2329	2.41392	1332
3	2339	2.41936	1368
3	2349	2.4248	1404
3	2359	2.43024	1440
3	2369	2.43568	1476
3	2379	2.44112	1512
3	2389	2.44656	1548
3	2414	2.452	1584
3	2424	2.45744	1620
3	2434	2.46288	1656
3	2444	2.46832	1692
3	2454	2.47376	1728
3	2464	2.4792	1764
3	2474	2.48464	1800
3	2484	2.49008	1836
3	2494	2.49552	1872
3	2534	2.50096	1908
3	2544	2.5064	1944
3	2554	2.51184	1980
3	2564	2.51728	2016
3	2574	2.52272	2052
3	2584	2.52816	2088
3	2594	2.5336	2124
3	2604	2.53904	2160
3	2614	2.54448	2196
3	2624	2.54992	2232
3	2649	2.55536	2268
3	2659	2.5608	2304
3	2669	2.56624	2340
3	2679	2.57168	2376
3	2689	2.57712	2412
3	2699	2.58256	2448
3	2709	2.588	2484
3	2719	2.59344	2520
3	2729	2.59888	2556
3	2769	2.60432	2592
3	2779	2.60976	2628
3	2789	2.6152	2664
3	2799	2.62064	2700
3	2809	2.62608	2736
3	2819	2.63152	2772
3	2829	2.63696	2808
3	2839	2.6424	2844
3	2849	2.64784	2880
3	2874	2.65328	2916
3	2884	2.65872	2952
3	2894	2.66416	2988
3	2904	2.6696	3024
3	2914	2.67504	3060
3	2924	2.68048	3096
3	2934	2.68592	3132
3	2944	2.69136	3168
3	2954	2.6968	3204
3	2994	2.70224	3240
3	3004	2.70768	3276
3	3014	2.71312	3312
3	3024	2.71856	3348
3	3034	2.724	3384
3	3044	2.72944	3420
3	3054	2.73488	3456
3	3064	2.74032	3492
3	3074	2.74576	3528
3	3123	2.7512	3564
3	3157	2.75664	3600
3	3191	2.76208	3636
3	3481	2.7828	3672
3	3495	2.79048	3708
3	3505	2.79592	3744
3	3545	2.80136	3780
3	3555	2.8068	3816
3	3565	2.81224	3852
3	3575	2.81768	3888
3	3585	2.82312	3924
3	3595	2.82856	3960
3	3605	2.834	3996
3	3615	2.83944	4032
3	3625	2.84488	4068
3	3650	2.85032	4104
3	3660	2.85576	4140
3	3670	2.8612	4176
3	3680	2.86664	4212
3	3690	2.87208	4248
3	3700	2.87752	4284
3	3710	2.88296	4320
3	3720	2.8884	4356
3	3730	2.89384	4392
3	3740	2.89928	4428
3	3780	2.90472	4464
3	3790	2.91016	4500
3	3800	2.9156	4536
3	3810	2.92104	4572
3	3820	2.92648	4608
3	3830	2.93192	4644
3	3840	2.93736	4680
3	3850	2.9428	4716
3	3860	2.94824	4752
3	3885	2.95368	4788
3	3895	2.95912	4824
3	3905	2.96456	4860
3	3915	2.97	4896
3	3925	2.97544	4932
3	3935	2.98088	4968
3	3945	2.98632	5004
3	3955	2.99176	5040
3	3965	2.9972	5076
3	4005	3.00264	5112
3	4015	3.00808	5148
3	4025	3.01352	5184
3	4035	3.01896	5220
3	4045	3.0244	5256
3	4055	3.02984	5292
3	4065	3.03528	5328
3	4075	3.04072	5364
3	4085	3.04616	5400
3	4110	3.0516	5436
3	4120	3.05704	5472
3	4130	3.06248	5508
3	4140	3.06792	5544
3	4150	3.07336	5580
3	4160	3.0788	5616
3	4170	3.08424	5652
3	4180	3.08968	5688
3	4190	3.09512	5724
3	4230	3.10056	5760
3	4240	3.106	5796
3	4250	3.11144	5832
3	4260	3.11688	5868
3	4270	3.12232	5904
3	4280	3.12776	5940
3	4290	3.1332	5976
3	4300	3.13864	6012
3	4310	3.14408	6048
3	4320	3.14952	6084
3	4345	3.15496	6120
3	4355	3.1604	6156
3	4365	3.16584	6192
3	4375	3.17128	6228
3	4385	3.17672	6264
3	4395	3.18216	6300
3	4405	3.1876	6336
3	4415	3.19304	6372
3	4425	3.19848	6408
3	4465	3.20392	6444
3	4475	3.20936	6480
3	4485	3.2148	6516
3	4495	3.22024	6552
3	4505	3.22568	6588
3	4515	3.23112	6624
3	4525	3.23656	6660
3	4535	3.242	6696
3	4545	3.24744	6732
3	4570	3.25288	6768
3	4580	3.25832	6804
3	4590	3.26376	6840
3	4600	3.2692	6876
3	4610	3.27464	6912
3	4620	3.28008	6948
3	4630	3.28552	6984
3	4640	3.29096	7020
3	4650	3.2964	7056
3	4714	3.30184	7092
3	4748	3.30728	7128
3	4775	3.31272	7164
3	4807	3.31816	7200
3	5025	3.3236	7236
3	5072	3.3384	7272
3	5086	3.34384	7308
3	5100	3.34928	7344
3	5129	3.35472	7380
3	5139	3.36016	7416
3	5149	3.3656	7452
3	5159	3.37104	7488
3	5169	3.37648	7524
3	5179	3.38192	7560
3	5189	3.38736	7596
3	5199	3.3928	7632
3	5209	3.39824	7668
3	5249	3.40368	7704
3	5259	3.40912	7740
3	5269	3.41456	7776
3	5279	3.42	7812
3	5289	3.42544	7848
3	5299	3.43088	7884
3	5309	3.43632	7920
3	5319	3.44176	7956
3	5329	3.4472	7992
3	5354	3.45264	8028
3	5364	3.45808	8064
3	5374	3.46352	8100
3	5384	3.46896	8136
3	5394	3.4744	8172
3	5404	3.47984	8208
3	5414	3.48528	8244
3	5424	3.49072	8280
3	5434	3.49616	8316
3	5474	3.5016	8352
3	5484	3.50704	8388
3	5494	3.51248	8424
3	5504	3.51792	8460
3	5514	3.52336	8496
3	5524	3.5288	8532
3	5534	3.53424	8568
3	5544	3.53968	8604
3	5554	3.54512	8640
3	5579	3.55056	8676
3	5589	3.556	8712
3	5599	3.56144	8748
3	5609	3.56688	8784
3	5619	3.57232	8820
3	5629	3.57776	8856
3	5639	3.5832	8892
3	5649	3.58864	8928
3	5659	3.59408	8964
3	5669	3.59952	9000
3	5709	3.60496	9036
3	5719	3.6104	9072
3	5729	3.61584	9108
3	5739	3.62128	9144
3	5749	3.62672	9180
3	5759	3.63216	9216
3	5769	3.6376	9252
3	5779	3.64304	9288
3	5789	3.64848	9324
3	5814	3.65392	9360
3	5824	3.65936	9396
3	5834	3.6648	9432
3	5844	3.67024	9468
3	5854	3.67568	9504
3	5864	3.68112	9540
3	5874	3.68656	9576
3	5884	3.692	9612
3	5894	3.69744	9648
3	5934	3.70288	9684
3	5944	3.70832	9720
3	5954	3.71376	9756
3	5964	3.7192	9792
3	5974	3.72464	9828
3	5984	3.73008	9864
3	5994	3.73552	9900
3	6004	3.74096	9936
3	6014	3.7464	9972
3	6039	3.75184	10008
3	6049	3.75728	10044
3	6059	3.76272	10080
3	6069	3.76816	10116
3	6079	3.7736	10152
3	6089	3.77904	10188
3	6099	3.78448	10224
3	6109	3.78992	10260
3	6119	3.79536	10296
3	6159	3.8008	10332
3	6169	3.80624	10368
3	6179	3.81168	10404
3	6189	3.81712	10440
3	6199	3.82256	10476
3	6209	3.828	10512
3	6219	3.83344	10548
3	6229	3.83888	10584
3	6239	3.84432	10620
3	6249	3.84976	10656
3	6319	3.8552	10692
3	6350	3.86064	10728
3	6381	3.86608	10764
3	6500	3.90608	10800

