version 2
run testing-0-20191115-02:27:49-18079
attr configname testing
attr datetime 20191115-02:27:49
attr experiment testing
attr inifile GwSimV2.ini
attr iterationvars ""
attr iterationvarsf ""
attr measurement ""
attr network NetworkTormV2
attr processid 18079
attr repetition 0
attr replication #0
attr resultdir results
attr runnumber 0
attr seedset 0
param **.mobility.traceFile "\"AllPaths/mobPaths/testing.movements\""
param **.numNodes 4
param **.application.dataGenerationInterval 1s
param **.application.dataSizeInBytes 10
param **.application.ttl 999999s
param **application.nodesThatGen false
param **application.nodesGenMsg "\"\""
param **application.startMultipleMsg false
param **application.numMultipleMsg 100
param **application.hopsListSize 50
param **.application.endGeneratingMsg 539s
param **.routingLayer "\"RoutingLqeGw\""
param **.routing.maximumCacheSize 5000byte
param **.routing.maximumHopCount 25
param **.routing.useTTL false
param **.routing.waitBFsend 0.1
param **.routing.max_age 999999s
param **.routing.gateway_list "\"\""
param **.routing.actual_gateway "\"\""
param **.routing.gwCheckPeriod 5s
param **.neighboring.resetGPeriod 999s
param **.wirelessIfc.wirelessRange 40m
param **.numNodes 2
param **.application.usedRNG 1
param **.application.dataGenerationInterval 1s
param **.application.dataSizeInBytes 10
param **.application.ttl 999999s
param **application.destinationAddr "\"Wf:00:00:00:00:02\""
param **application.destinationBTAddr "\"Bt:00:00:00:00:02\""
param **application.nodesThatGen true
param **application.nodesGenMsg "\"0\""
param **application.startMultipleMsg true
param **application.numMultipleMsg 100
param **application.hopsListSize 50
param **.application.endGeneratingMsg 999999s
param **.routingLayer "\"RoutingLqeGw\""
param **.routing.maximumCacheSize 5000byte
param **.routing.maximumHopCount 25
param **.routing.useTTL false
param **.routing.waitBFsend 0.1
param **.routing.max_age 999999s
param **.routing.gateway_list "\"\""
param **.routing.actual_gateway "\"\""
param **.routing.gwCheckPeriod 5s
param **.neighboring.antiEntropyInterval 500ms
param **.neighboring.maximumRandomBackoffDuration 1s
param **.neighboring.delayPerDataMsg 0.1
param **neighboring.usedRNG 2
param **.neighboring.GWAddr "\"Wf:00:00:00:00:02\""
param **.neighboring.sendWifiFirst true
param **.neighboring.maxLengthGraph 20
param **.neighboring.max_age 999999s
param **.neighboring.max_absent_time 1s
param **.wirelessIfc.wirelessRange 40m
param **.wirelessIfc.neighbourScanInterval 50ms
param **.wirelessIfc.bandwidthBitRate 100000bps
param **.wirelessIfc.wirelessHeaderSize 32byte
param **.wirelessIfc.minSSI -90
param **.wirelessIfc.limitQueueTime 400ms
param **.wirelessIfc.my_limit_rate 0bps
param **.bluetoothIfc.wirelessRange 40m
param **.bluetoothIfc.neighbourScanInterval 100ms
param **.bluetoothIfc.bandwidthBitRate 100000bps
param **.bluetoothIfc.wirelessHeaderSize 16byte
param **.bluetoothIfc.minSSI -90
param **.mobilityType "\"BonnMotionMobility\""
param **.mobility.traceFile "\"paths/Moves2.movements\""
param **.mobility.is3D false
param **.mobility.nodeId -1

vector 0 NetworkTormV2 neighbourhoodSize:vector ETV
attr source neighbourhoodSize
vector 1 NetworkTormV2 deliveryRatio:vector ETV
attr source sum(totalDataBytesReceived)/sum(totalDataBytesReceivableByAllNodes)
vector 2 NetworkTormV2 dataBytesReceivedSum:vector ETV
attr source sum(dataBytesReceived)
vector 3 NetworkTormV2 totalBytesReceivedSum:vector ETV
attr source sum(totalBytesReceived)
0	13	0.05	3
0	14	0.05	1
0	15	0.05	2
0	16	0.05	2
0	50	0.1	3
0	52	0.1	1
0	54	0.1	2
0	56	0.1	2
0	61	0.1	3
0	62	0.1	1
0	63	0.1	2
0	64	0.1	2
0	109	0.15	3
0	110	0.15	1
0	111	0.15	2
0	112	0.15	2
0	145	0.2	3
0	146	0.2	1
0	147	0.2	2
0	148	0.2	2
0	153	0.2	3
0	154	0.2	1
0	155	0.2	2
0	156	0.2	2
0	197	0.25	3
0	198	0.25	1
0	199	0.25	2
0	200	0.25	2
0	233	0.3	3
0	234	0.3	1
0	235	0.3	2
0	236	0.3	2
0	241	0.3	3
0	242	0.3	1
0	243	0.3	2
0	244	0.3	2
0	285	0.35	3
0	286	0.35	1
0	287	0.35	2
0	288	0.35	2
0	321	0.4	3
0	322	0.4	1
0	323	0.4	2
0	324	0.4	2
0	329	0.4	3
0	330	0.4	1
0	331	0.4	2
0	332	0.4	2
0	373	0.45	3
0	374	0.45	1
0	375	0.45	2
0	376	0.45	2
0	409	0.5	3
0	410	0.5	1
0	411	0.5	2
0	412	0.5	2
0	417	0.5	3
0	418	0.5	1
0	419	0.5	2
0	420	0.5	2
0	461	0.55	3
0	462	0.55	1
0	463	0.55	2
0	464	0.55	2
0	497	0.6	3
0	498	0.6	1
0	499	0.6	2
0	500	0.6	2
0	505	0.6	3
0	506	0.6	1
0	507	0.6	2
0	508	0.6	2
0	549	0.65	3
0	550	0.65	1
0	551	0.65	2
0	552	0.65	2
0	585	0.7	3
0	586	0.7	1
0	587	0.7	2
0	588	0.7	2
0	593	0.7	3
0	594	0.7	1
0	595	0.7	2
0	596	0.7	2
0	637	0.75	3
0	638	0.75	1
0	639	0.75	2
0	640	0.75	2
0	673	0.8	3
0	674	0.8	1
0	675	0.8	2
0	676	0.8	2
0	681	0.8	3
0	682	0.8	1
0	683	0.8	2
0	684	0.8	2
0	725	0.85	3
0	726	0.85	1
0	727	0.85	2
0	728	0.85	2
0	761	0.9	3
0	762	0.9	1
0	763	0.9	2
0	764	0.9	2
0	769	0.9	3
0	770	0.9	1
0	771	0.9	2
0	772	0.9	2
0	813	0.95	3
0	814	0.95	1
0	815	0.95	2
0	816	0.95	2
0	849	1	3
0	850	1	1
0	851	1	2
0	852	1	2
0	857	1	3
0	858	1	1
0	859	1	2
0	860	1	2
0	901	1.05	3
0	902	1.05	1
0	903	1.05	2
0	904	1.05	2
0	941	1.1	3
0	942	1.1	1
0	943	1.1	2
0	944	1.1	2
0	949	1.1	3
0	950	1.1	1
0	951	1.1	2
0	952	1.1	2
0	1163	1.15	3
0	1164	1.15	1
0	1165	1.15	2
0	1166	1.15	2
0	1217	1.2	3
0	1218	1.2	1
0	1219	1.2	2
0	1220	1.2	2
0	1225	1.2	3
0	1226	1.2	1
0	1227	1.2	2
0	1228	1.2	2
0	1269	1.25	3
0	1270	1.25	1
0	1271	1.25	2
0	1272	1.25	2
0	1305	1.3	3
0	1306	1.3	1
0	1307	1.3	2
0	1308	1.3	2
0	1313	1.3	3
0	1314	1.3	1
0	1315	1.3	2
0	1316	1.3	2
0	1357	1.35	3
0	1358	1.35	1
0	1359	1.35	2
0	1360	1.35	2
0	1393	1.4	3
0	1394	1.4	1
0	1395	1.4	2
0	1396	1.4	2
0	1401	1.4	3
0	1402	1.4	1
0	1403	1.4	2
0	1404	1.4	2
0	1445	1.45	3
0	1446	1.45	1
0	1447	1.45	2
0	1448	1.45	2
0	1481	1.5	3
0	1482	1.5	1
0	1483	1.5	2
0	1484	1.5	2
0	1489	1.5	3
0	1490	1.5	1
0	1491	1.5	2
0	1492	1.5	2
0	1533	1.55	3
0	1534	1.55	1
0	1535	1.55	2
0	1536	1.55	2
0	1569	1.6	3
0	1570	1.6	1
0	1571	1.6	2
0	1572	1.6	2
0	1577	1.6	3
0	1578	1.6	1
0	1579	1.6	2
0	1580	1.6	2
0	1621	1.65	3
0	1622	1.65	1
0	1623	1.65	2
0	1624	1.65	2
0	1823	1.7	3
0	1824	1.7	1
0	1825	1.7	2
0	1826	1.7	2
0	1831	1.7	3
0	1832	1.7	1
0	1833	1.7	2
0	1834	1.7	2
0	1893	1.75	3
0	1894	1.75	1
0	1895	1.75	2
0	1896	1.75	2
0	1929	1.8	3
0	1930	1.8	1
0	1931	1.8	2
0	1932	1.8	2
0	1937	1.8	3
0	1938	1.8	1
0	1939	1.8	2
0	1940	1.8	2
0	1981	1.85	3
0	1982	1.85	1
0	1983	1.85	2
0	1984	1.85	2
0	2017	1.9	3
0	2018	1.9	1
0	2019	1.9	2
0	2020	1.9	2
0	2025	1.9	3
0	2026	1.9	1
0	2027	1.9	2
0	2028	1.9	2
0	2069	1.95	3
0	2070	1.95	1
0	2071	1.95	2
0	2072	1.95	2
0	2105	2	3
0	2106	2	1
0	2107	2	2
0	2108	2	2
0	2113	2	3
0	2114	2	1
0	2115	2	2
0	2116	2	2
0	2157	2.05	3
0	2158	2.05	1
0	2159	2.05	2
0	2160	2.05	2
0	2197	2.1	3
0	2198	2.1	1
0	2199	2.1	2
0	2200	2.1	2
0	2205	2.1	3
0	2206	2.1	1
0	2207	2.1	2
0	2208	2.1	2
0	2253	2.15	3
0	2254	2.15	1
0	2255	2.15	2
0	2256	2.15	2
0	2289	2.2	3
0	2290	2.2	1
0	2291	2.2	2
0	2292	2.2	2
0	2297	2.2	3
0	2298	2.2	1
0	2299	2.2	2
0	2300	2.2	2
0	2507	2.25	3
0	2508	2.25	1
0	2509	2.25	2
0	2510	2.25	2
0	2561	2.3	3
0	2562	2.3	1
0	2563	2.3	2
0	2564	2.3	2
0	2569	2.3	3
0	2570	2.3	1
0	2571	2.3	2
0	2572	2.3	2
0	2613	2.35	3
0	2614	2.35	1
0	2615	2.35	2
0	2616	2.35	2
0	2649	2.4	3
0	2650	2.4	1
0	2651	2.4	2
0	2652	2.4	2
0	2657	2.4	3
0	2658	2.4	1
0	2659	2.4	2
0	2660	2.4	2
0	2701	2.45	3
0	2702	2.45	1
0	2703	2.45	2
0	2704	2.45	2
0	2737	2.5	3
0	2738	2.5	1
0	2739	2.5	2
0	2740	2.5	2
0	2745	2.5	3
0	2746	2.5	1
0	2747	2.5	2
0	2748	2.5	2
0	2789	2.55	3
0	2790	2.55	1
0	2791	2.55	2
0	2792	2.55	2
0	2825	2.6	3
0	2826	2.6	1
0	2827	2.6	2
0	2828	2.6	2
0	2833	2.6	3
0	2834	2.6	1
0	2835	2.6	2
0	2836	2.6	2
0	2877	2.65	3
0	2878	2.65	1
0	2879	2.65	2
0	2880	2.65	2
0	2913	2.7	3
0	2914	2.7	1
0	2915	2.7	2
0	2916	2.7	2
0	2921	2.7	3
0	2922	2.7	1
0	2923	2.7	2
0	2924	2.7	2
0	2965	2.75	3
0	2966	2.75	1
0	2967	2.75	2
0	2968	2.75	2
0	3167	2.8	3
0	3168	2.8	1
0	3169	2.8	2
0	3170	2.8	2
0	3175	2.8	3
0	3176	2.8	1
0	3177	2.8	2
0	3178	2.8	2
0	3231	2.85	3
0	3232	2.85	1
0	3233	2.85	2
0	3234	2.85	2
0	3267	2.9	3
0	3268	2.9	1
0	3269	2.9	2
0	3270	2.9	2
0	3275	2.9	3
0	3276	2.9	1
0	3277	2.9	2
0	3278	2.9	2
0	3319	2.95	3
0	3320	2.95	1
0	3321	2.95	2
0	3322	2.95	2
0	3355	3	3
0	3356	3	1
0	3357	3	2
0	3358	3	2
0	3363	3	3
0	3364	3	1
0	3365	3	2
0	3366	3	2
0	3407	3.05	3
0	3408	3.05	1
0	3409	3.05	2
0	3410	3.05	2
0	3447	3.1	3
0	3448	3.1	1
0	3449	3.1	2
0	3450	3.1	2
0	3455	3.1	3
0	3456	3.1	1
0	3457	3.1	2
0	3458	3.1	2
0	3503	3.15	3
0	3504	3.15	1
0	3505	3.15	2
0	3506	3.15	2
0	3539	3.2	3
0	3540	3.2	1
0	3541	3.2	2
0	3542	3.2	2
0	3547	3.2	3
0	3548	3.2	1
0	3549	3.2	2
0	3550	3.2	2
0	3591	3.25	3
0	3592	3.25	1
0	3593	3.25	2
0	3594	3.25	2
0	3627	3.3	3
0	3628	3.3	1
0	3629	3.3	2
0	3630	3.3	2
0	3635	3.3	3
0	3636	3.3	1
0	3637	3.3	2
0	3638	3.3	2
0	3845	3.35	3
0	3846	3.35	1
0	3847	3.35	2
0	3848	3.35	2
0	3893	3.4	3
0	3894	3.4	1
0	3895	3.4	2
0	3896	3.4	2
0	3901	3.4	3
0	3902	3.4	1
0	3903	3.4	2
0	3904	3.4	2
0	3945	3.45	3
0	3946	3.45	1
0	3947	3.45	2
0	3948	3.45	2
0	3981	3.5	3
0	3982	3.5	1
0	3983	3.5	2
0	3984	3.5	2
0	3989	3.5	3
0	3990	3.5	1
0	3991	3.5	2
0	3992	3.5	2
0	4033	3.55	3
0	4034	3.55	1
0	4035	3.55	2
0	4036	3.55	2
0	4069	3.6	3
0	4070	3.6	1
0	4071	3.6	2
0	4072	3.6	2
0	4077	3.6	3
0	4078	3.6	1
0	4079	3.6	2
0	4080	3.6	2
0	4121	3.65	3
0	4122	3.65	1
0	4123	3.65	2
0	4124	3.65	2
0	4157	3.7	3
0	4158	3.7	1
0	4159	3.7	2
0	4160	3.7	2
0	4165	3.7	3
0	4166	3.7	1
0	4167	3.7	2
0	4168	3.7	2
0	4209	3.75	3
0	4210	3.75	1
0	4211	3.75	2
0	4212	3.75	2
0	4245	3.8	3
0	4246	3.8	1
0	4247	3.8	2
0	4248	3.8	2
0	4253	3.8	3
0	4254	3.8	1
0	4255	3.8	2
0	4256	3.8	2
0	4297	3.85	3
0	4298	3.85	1
0	4299	3.85	2
0	4300	3.85	2
0	4499	3.9	3
0	4500	3.9	1
0	4501	3.9	2
0	4502	3.9	2
0	4507	3.9	3
0	4508	3.9	1
0	4509	3.9	2
0	4510	3.9	2
0	4563	3.95	3
0	4564	3.95	1
0	4565	3.95	2
0	4566	3.95	2
0	4599	4	3
0	4600	4	1
0	4601	4	2
0	4602	4	2
0	4607	4	3
0	4608	4	1
0	4609	4	2
0	4610	4	2
0	4651	4.05	3
0	4652	4.05	1
0	4653	4.05	2
0	4654	4.05	2
0	4691	4.1	3
0	4692	4.1	1
0	4693	4.1	2
0	4694	4.1	2
0	4699	4.1	3
0	4700	4.1	1
0	4701	4.1	2
0	4702	4.1	2
0	4747	4.15	3
0	4748	4.15	2
0	4749	4.15	3
0	4750	4.15	2
0	4783	4.2	3
0	4784	4.2	2
0	4785	4.2	3
0	4786	4.2	2
0	4791	4.2	3
0	4792	4.2	2
0	4793	4.2	3
0	4794	4.2	2
0	4835	4.25	3
0	4836	4.25	2
0	4837	4.25	3
0	4838	4.25	2
0	4871	4.3	3
0	4872	4.3	2
0	4873	4.3	3
0	4874	4.3	2
0	4879	4.3	3
0	4880	4.3	2
0	4881	4.3	3
0	4882	4.3	2
0	4923	4.35	3
0	4924	4.35	2
0	4925	4.35	3
0	4926	4.35	2
0	4959	4.4	3
0	4960	4.4	2
0	4961	4.4	3
0	4962	4.4	2
0	4967	4.4	3
0	4968	4.4	2
0	4969	4.4	3
0	4970	4.4	2
0	5177	4.45	3
0	5178	4.45	2
0	5179	4.45	3
0	5180	4.45	2
0	5231	4.5	3
0	5232	4.5	2
0	5233	4.5	3
0	5234	4.5	2
0	5239	4.5	3
0	5240	4.5	2
0	5241	4.5	3
0	5242	4.5	2
0	5283	4.55	3
0	5284	4.55	2
0	5285	4.55	3
0	5286	4.55	2
0	5319	4.6	3
0	5320	4.6	2
0	5321	4.6	3
0	5322	4.6	2
0	5327	4.6	3
0	5328	4.6	2
0	5329	4.6	3
0	5330	4.6	2
0	5371	4.65	3
0	5372	4.65	2
0	5373	4.65	3
0	5374	4.65	2
0	5407	4.7	3
0	5408	4.7	2
0	5409	4.7	3
0	5410	4.7	2
0	5415	4.7	3
0	5416	4.7	2
0	5417	4.7	3
0	5418	4.7	2
0	5459	4.75	3
0	5460	4.75	2
0	5461	4.75	3
0	5462	4.75	2
0	5495	4.8	3
0	5496	4.8	2
0	5497	4.8	3
0	5498	4.8	2
0	5503	4.8	3
0	5504	4.8	2
0	5505	4.8	3
0	5506	4.8	2
0	5547	4.85	3
0	5548	4.85	2
0	5549	4.85	3
0	5550	4.85	2
0	5583	4.9	3
0	5584	4.9	2
0	5585	4.9	3
0	5586	4.9	2
0	5591	4.9	3
0	5592	4.9	2
0	5593	4.9	3
0	5594	4.9	2
0	5635	4.95	3
0	5636	4.95	2
0	5637	4.95	3
0	5638	4.95	2
0	5823	5	3
0	5824	5	2
0	5825	5	3
0	5826	5	2
0	5831	5	3
0	5832	5	2
0	5833	5	3
0	5834	5	2
0	5893	5.05	3
0	5894	5.05	2
0	5895	5.05	3
0	5896	5.05	2
0	5933	5.1	3
0	5934	5.1	2
0	5935	5.1	3
0	5936	5.1	2
0	5941	5.1	3
0	5942	5.1	2
0	5943	5.1	3
0	5944	5.1	2
0	5989	5.15	3
0	5990	5.15	2
0	5991	5.15	3
0	5992	5.15	2
0	6025	5.2	3
0	6026	5.2	2
0	6027	5.2	3
0	6028	5.2	2
0	6033	5.2	3
0	6034	5.2	2
0	6035	5.2	3
0	6036	5.2	2
0	6099	5.25	3
0	6100	5.25	2
0	6101	5.25	3
0	6102	5.25	2
0	6135	5.3	3
0	6136	5.3	2
0	6137	5.3	3
0	6138	5.3	2
0	6143	5.3	3
0	6144	5.3	2
0	6145	5.3	3
0	6146	5.3	2
0	6187	5.35	3
0	6188	5.35	2
0	6189	5.35	3
0	6190	5.35	2
0	6223	5.4	3
0	6224	5.4	2
0	6225	5.4	3
0	6226	5.4	2
0	6231	5.4	3
0	6232	5.4	2
0	6233	5.4	3
0	6234	5.4	2
0	6275	5.45	3
0	6276	5.45	2
0	6277	5.45	3
0	6278	5.45	2
0	6311	5.5	3
0	6312	5.5	2
0	6313	5.5	3
0	6314	5.5	2
0	6319	5.5	3
0	6320	5.5	2
0	6321	5.5	3
0	6322	5.5	2
0	6500	5.55	3
0	6501	5.55	2
0	6502	5.55	3
0	6503	5.55	2
0	6536	5.6	3
0	6537	5.6	2
0	6538	5.6	3
0	6539	5.6	2
0	6544	5.6	3
0	6545	5.6	2
0	6546	5.6	3
0	6547	5.6	2
0	6588	5.65	3
0	6589	5.65	2
0	6590	5.65	3
0	6591	5.65	2
0	6647	5.7	3
0	6648	5.7	2
0	6649	5.7	3
0	6650	5.7	2
0	6655	5.7	3
0	6656	5.7	2
0	6657	5.7	3
0	6658	5.7	2
0	6699	5.75	3
0	6700	5.75	2
0	6701	5.75	3
0	6702	5.75	2
0	6740	5.8	3
0	6741	5.8	2
0	6742	5.8	3
0	6743	5.8	2
0	6748	5.8	3
0	6749	5.8	2
0	6750	5.8	3
0	6751	5.8	2
0	6792	5.85	3
0	6793	5.85	2
0	6794	5.85	3
0	6795	5.85	2
0	6828	5.9	3
0	6829	5.9	2
0	6830	5.9	3
0	6831	5.9	2
0	6836	5.9	3
0	6837	5.9	2
0	6838	5.9	3
0	6839	5.9	2
0	6880	5.95	3
0	6881	5.95	2
0	6882	5.95	3
0	6883	5.95	2
0	6920	6	3
0	6921	6	2
0	6922	6	3
0	6923	6	2
0	6928	6	3
0	6929	6	2
0	6930	6	3
0	6931	6	2
0	6972	6.05	3
0	6973	6.05	2
0	6974	6.05	3
0	6975	6.05	2
0	7150	6.1	3
0	7151	6.1	2
0	7152	6.1	3
0	7153	6.1	2
0	7158	6.1	3
0	7159	6.1	2
0	7160	6.1	3
0	7161	6.1	2
0	7206	6.15	3
0	7207	6.15	2
0	7208	6.15	3
0	7209	6.15	2
0	7242	6.2	3
0	7243	6.2	2
0	7244	6.2	3
0	7245	6.2	2
0	7250	6.2	3
0	7251	6.2	2
0	7252	6.2	3
0	7253	6.2	2
0	7340	6.25	3
0	7341	6.25	2
0	7342	6.25	3
0	7343	6.25	2
0	7376	6.3	3
0	7377	6.3	2
0	7378	6.3	3
0	7379	6.3	2
0	7384	6.3	3
0	7385	6.3	2
0	7386	6.3	3
0	7387	6.3	2
0	7428	6.35	3
0	7429	6.35	2
0	7430	6.35	3
0	7431	6.35	2
0	7464	6.4	3
0	7465	6.4	2
0	7466	6.4	3
0	7467	6.4	2
0	7472	6.4	3
0	7473	6.4	2
0	7474	6.4	3
0	7475	6.4	2
0	7516	6.45	3
0	7517	6.45	2
0	7518	6.45	3
0	7519	6.45	2
0	7552	6.5	3
0	7553	6.5	2
0	7554	6.5	3
0	7555	6.5	2
0	7560	6.5	3
0	7561	6.5	2
0	7562	6.5	3
0	7563	6.5	2
0	7604	6.55	3
0	7605	6.55	2
0	7606	6.55	3
0	7607	6.55	2
0	7640	6.6	3
0	7641	6.6	2
0	7642	6.6	3
0	7643	6.6	2
0	7648	6.6	3
0	7649	6.6	2
0	7650	6.6	3
0	7651	6.6	2
0	7812	6.65	3
0	7813	6.65	2
0	7814	6.65	3
0	7815	6.65	2
0	7848	6.7	3
0	7849	6.7	2
0	7850	6.7	3
0	7851	6.7	2
0	7856	6.7	3
0	7857	6.7	2
0	7858	6.7	3
0	7859	6.7	2
0	7900	6.75	3
0	7901	6.75	2
0	7902	6.75	3
0	7903	6.75	2
0	7959	6.8	3
0	7960	6.8	2
0	7961	6.8	3
0	7962	6.8	2
0	7967	6.8	3
0	7968	6.8	2
0	7969	6.8	3
0	7970	6.8	2
0	8016	6.85	3
0	8017	6.85	2
0	8018	6.85	3
0	8019	6.85	2
0	8052	6.9	3
0	8053	6.9	2
0	8054	6.9	3
0	8055	6.9	2
0	8060	6.9	3
0	8061	6.9	2
0	8062	6.9	3
0	8063	6.9	2
0	8104	6.95	3
0	8105	6.95	2
0	8106	6.95	3
0	8107	6.95	2
0	8144	7	3
0	8145	7	2
0	8146	7	3
0	8147	7	2
0	8152	7	3
0	8153	7	2
0	8154	7	3
0	8155	7	2
0	8196	7.05	3
0	8197	7.05	2
0	8198	7.05	3
0	8199	7.05	2
0	8236	7.1	3
0	8237	7.1	2
0	8238	7.1	3
0	8239	7.1	2
0	8244	7.1	3
0	8245	7.1	2
0	8246	7.1	3
0	8247	7.1	2
0	8292	7.15	3
0	8293	7.15	2
0	8294	7.15	3
0	8295	7.15	2
0	8425	7.2	3
0	8426	7.2	2
0	8427	7.2	3
0	8428	7.2	2
0	8433	7.2	3
0	8434	7.2	2
0	8435	7.2	3
0	8436	7.2	2
0	8477	7.25	3
0	8478	7.25	2
0	8479	7.25	3
0	8480	7.25	2
0	8513	7.3	3
0	8514	7.3	2
0	8515	7.3	3
0	8516	7.3	2
0	8521	7.3	3
0	8522	7.3	2
0	8523	7.3	3
0	8524	7.3	2
0	8588	7.35	3
0	8589	7.35	2
0	8590	7.35	3
0	8591	7.35	2
0	8647	7.4	3
0	8648	7.4	2
0	8649	7.4	3
0	8650	7.4	2
0	8655	7.4	3
0	8656	7.4	2
0	8657	7.4	3
0	8658	7.4	2
0	8699	7.45	3
0	8700	7.45	2
0	8701	7.45	3
0	8702	7.45	2
0	8735	7.5	3
0	8736	7.5	2
0	8737	7.5	3
0	8738	7.5	2
0	8743	7.5	3
0	8744	7.5	2
0	8745	7.5	3
0	8746	7.5	2
0	8792	7.55	3
0	8793	7.55	2
0	8794	7.55	3
0	8795	7.55	2
0	8828	7.6	3
0	8829	7.6	2
0	8830	7.6	3
0	8831	7.6	2
0	8836	7.6	3
0	8837	7.6	2
0	8838	7.6	3
0	8839	7.6	2
0	8880	7.65	3
0	8881	7.65	2
0	8882	7.65	3
0	8883	7.65	2
0	8916	7.7	3
0	8917	7.7	2
0	8918	7.7	3
0	8919	7.7	2
0	8924	7.7	3
0	8925	7.7	2
0	8926	7.7	3
0	8927	7.7	2
0	9060	7.75	3
0	9061	7.75	2
0	9062	7.75	3
0	9063	7.75	2
0	9096	7.8	3
0	9097	7.8	2
0	9098	7.8	3
0	9099	7.8	2
0	9104	7.8	3
0	9105	7.8	2
0	9106	7.8	3
0	9107	7.8	2
0	9171	7.85	3
0	9172	7.85	2
0	9173	7.85	3
0	9174	7.85	2
0	9253	7.9	3
0	9254	7.9	2
0	9255	7.9	3
0	9256	7.9	2
0	9261	7.9	3
0	9262	7.9	2
0	9263	7.9	3
0	9264	7.9	2
0	9305	7.95	3
0	9306	7.95	2
0	9307	7.95	3
0	9308	7.95	2
0	9350	8	3
0	9351	8	2
0	9352	8	3
0	9353	8	2
0	9358	8	3
0	9359	8	2
0	9360	8	3
0	9361	8	2
0	9402	8.05	3
0	9403	8.05	2
0	9404	8.05	3
0	9405	8.05	2
0	9442	8.1	3
0	9443	8.1	2
0	9444	8.1	3
0	9445	8.1	2
0	9450	8.1	3
0	9451	8.1	2
0	9452	8.1	3
0	9453	8.1	2
0	9498	8.15	3
0	9499	8.15	2
0	9500	8.15	3
0	9501	8.15	2
0	9534	8.2	3
0	9535	8.2	2
0	9536	8.2	3
0	9537	8.2	2
0	9542	8.2	3
0	9543	8.2	2
0	9544	8.2	3
0	9545	8.2	2
0	9586	8.25	3
0	9587	8.25	2
0	9588	8.25	3
0	9589	8.25	2
0	9714	8.3	3
0	9715	8.3	2
0	9716	8.3	3
0	9717	8.3	2
0	9722	8.3	3
0	9723	8.3	2
0	9724	8.3	3
0	9725	8.3	2
0	9766	8.35	3
0	9767	8.35	2
0	9768	8.35	3
0	9769	8.35	2
0	9802	8.4	3
0	9803	8.4	2
0	9804	8.4	3
0	9805	8.4	2
0	9810	8.4	3
0	9811	8.4	2
0	9812	8.4	3
0	9813	8.4	2
0	9900	8.45	3
0	9901	8.45	2
0	9902	8.45	3
0	9903	8.45	2
0	9936	8.5	3
0	9937	8.5	2
0	9938	8.5	3
0	9939	8.5	2
0	9944	8.5	3
0	9945	8.5	2
0	9946	8.5	3
0	9947	8.5	2
0	9988	8.55	3
0	9989	8.55	2
0	9990	8.55	3
0	9991	8.55	2
0	10024	8.6	3
0	10025	8.6	2
0	10026	8.6	3
0	10027	8.6	2
0	10032	8.6	3
0	10033	8.6	2
0	10034	8.6	3
0	10035	8.6	2
0	10076	8.65	3
0	10077	8.65	2
0	10078	8.65	3
0	10079	8.65	2
0	10112	8.7	3
0	10113	8.7	2
0	10114	8.7	3
0	10115	8.7	2
0	10120	8.7	3
0	10121	8.7	2
0	10122	8.7	3
0	10123	8.7	2
0	10164	8.75	3
0	10165	8.75	2
0	10166	8.75	3
0	10167	8.75	2
0	10200	8.8	3
0	10201	8.8	2
0	10202	8.8	3
0	10203	8.8	2
0	10208	8.8	3
0	10209	8.8	2
0	10210	8.8	3
0	10211	8.8	2
0	10344	8.85	3
0	10345	8.85	2
0	10346	8.85	3
0	10347	8.85	2
0	10380	8.9	3
0	10381	8.9	2
0	10382	8.9	3
0	10383	8.9	2
0	10388	8.9	3
0	10389	8.9	2
0	10390	8.9	3
0	10391	8.9	2
0	10437	8.95	3
0	10438	8.95	2
0	10439	8.95	3
0	10440	8.95	2
0	10523	9	3
0	10524	9	2
0	10525	9	3
0	10526	9	2
0	10531	9	3
0	10532	9	2
0	10533	9	3
0	10534	9	2
0	10575	9.05	3
0	10576	9.05	2
0	10577	9.05	3
0	10578	9.05	2
0	10615	9.1	3
0	10616	9.1	2
0	10617	9.1	3
0	10618	9.1	2
0	10623	9.1	3
0	10624	9.1	2
0	10625	9.1	3
0	10626	9.1	2
0	10676	9.15	3
0	10677	9.15	2
0	10678	9.15	3
0	10679	9.15	2
0	10712	9.2	3
0	10713	9.2	2
0	10714	9.2	3
0	10715	9.2	2
0	10720	9.2	3
0	10721	9.2	2
0	10722	9.2	3
0	10723	9.2	2
0	10764	9.25	3
0	10765	9.25	2
0	10766	9.25	3
0	10767	9.25	2
0	10800	9.3	3
0	10801	9.3	2
0	10802	9.3	3
0	10803	9.3	2
0	10808	9.3	3
0	10809	9.3	2
0	10810	9.3	3
0	10811	9.3	2
0	10852	9.35	3
0	10853	9.35	2
0	10854	9.35	3
0	10855	9.35	2
0	10980	9.4	3
0	10981	9.4	2
0	10982	9.4	3
0	10983	9.4	2
0	10988	9.4	3
0	10989	9.4	2
0	10990	9.4	3
0	10991	9.4	2
0	11055	9.45	3
0	11056	9.45	2
0	11057	9.45	3
0	11058	9.45	2
0	11091	9.5	3
0	11092	9.5	2
0	11093	9.5	3
0	11094	9.5	2
0	11099	9.5	3
0	11100	9.5	2
0	11101	9.5	3
0	11102	9.5	2
0	11171	9.55	3
0	11172	9.55	2
0	11173	9.55	3
0	11174	9.55	2
0	11230	9.6	3
0	11231	9.6	2
0	11232	9.6	3
0	11233	9.6	2
0	11238	9.6	3
0	11239	9.6	2
0	11240	9.6	3
0	11241	9.6	2
0	11282	9.65	3
0	11283	9.65	2
0	11284	9.65	3
0	11285	9.65	2
0	11318	9.7	3
0	11319	9.7	2
0	11320	9.7	3
0	11321	9.7	2
0	11326	9.7	3
0	11327	9.7	2
0	11328	9.7	3
0	11329	9.7	2
0	11370	9.75	3
0	11371	9.75	2
0	11372	9.75	3
0	11373	9.75	2
0	11406	9.8	3
0	11407	9.8	2
0	11408	9.8	3
0	11409	9.8	2
0	11414	9.8	3
0	11415	9.8	2
0	11416	9.8	3
0	11417	9.8	2
0	11458	9.85	3
0	11459	9.85	2
0	11460	9.85	3
0	11461	9.85	2
0	11494	9.9	3
0	11495	9.9	2
0	11496	9.9	3
0	11497	9.9	2
0	11502	9.9	3
0	11503	9.9	2
0	11504	9.9	3
0	11505	9.9	2
0	11615	9.95	3
0	11616	9.95	2
0	11617	9.95	3
0	11618	9.95	2
0	11678	10	3
0	11679	10	2
0	11680	10	3
0	11681	10	2
0	11686	10	3
0	11687	10	2
0	11688	10	3
0	11689	10	2
0	11730	10.05	3
0	11731	10.05	2
0	11732	10.05	3
0	11733	10.05	2
0	11849	10.1	3
0	11850	10.1	2
0	11851	10.1	3
0	11852	10.1	2
0	11853	10.1	3
0	11854	10.1	2
0	11855	10.1	3
0	11856	10.1	2
0	12023	10.15	3
0	12024	10.15	2
0	12025	10.15	3
0	12026	10.15	2
0	12193	10.2	3
0	12194	10.2	2
0	12195	10.2	3
0	12196	10.2	2
0	12197	10.2	3
0	12198	10.2	2
0	12199	10.2	3
0	12200	10.2	2
0	12311	10.25	3
0	12312	10.25	2
0	12313	10.25	3
0	12314	10.25	2
0	12383	10.3	3
0	12384	10.3	2
0	12385	10.3	3
0	12386	10.3	2
0	12387	10.3	3
0	12388	10.3	2
0	12389	10.3	3
0	12390	10.3	2
0	12431	10.35	3
0	12432	10.35	2
0	12433	10.35	3
0	12434	10.35	2
0	12467	10.4	3
0	12468	10.4	2
0	12469	10.4	3
0	12470	10.4	2
0	12471	10.4	3
0	12472	10.4	2
0	12473	10.4	3
0	12474	10.4	2
0	12515	10.45	3
0	12516	10.45	2
0	12517	10.45	3
0	12518	10.45	2
0	12620	10.5	3
0	12621	10.5	2
0	12622	10.5	3
0	12623	10.5	2
0	12624	10.5	3
0	12625	10.5	2
0	12626	10.5	3
0	12627	10.5	2
0	12696	10.55	3
0	12697	10.55	2
0	12698	10.55	3
0	12699	10.55	2
0	12732	10.6	3
0	12733	10.6	2
0	12734	10.6	3
0	12735	10.6	2
0	12736	10.6	3
0	12737	10.6	2
0	12738	10.6	3
0	12739	10.6	2
0	12823	10.65	3
0	12824	10.65	2
0	12825	10.65	3
0	12826	10.65	2
0	12916	10.7	3
0	12917	10.7	2
0	12918	10.7	3
0	12919	10.7	2
0	12920	10.7	3
0	12921	10.7	2
0	12922	10.7	3
0	12923	10.7	2
0	12995	10.75	3
0	12996	10.75	2
0	12997	10.75	3
0	12998	10.75	2
0	13031	10.8	3
0	13032	10.8	2
0	13033	10.8	3
0	13034	10.8	2
0	13035	10.8	3
0	13036	10.8	2
0	13037	10.8	3
0	13038	10.8	2
0	13079	10.85	3
0	13080	10.85	2
0	13081	10.85	3
0	13082	10.85	2
0	13115	10.9	3
0	13116	10.9	2
0	13117	10.9	3
0	13118	10.9	2
0	13119	10.9	3
0	13120	10.9	2
0	13121	10.9	3
0	13122	10.9	2
0	13163	10.95	3
0	13164	10.95	2
0	13165	10.95	3
0	13166	10.95	2
0	13226	11	3
0	13227	11	2
0	13228	11	3
0	13229	11	2
0	13230	11	3
0	13231	11	2
0	13232	11	3
0	13233	11	2
0	13343	11.05	3
0	13344	11.05	2
0	13345	11.05	3
0	13346	11.05	2
0	13406	11.1	3
0	13407	11.1	2
0	13408	11.1	3
0	13409	11.1	2
0	13410	11.1	3
0	13411	11.1	2
0	13412	11.1	3
0	13413	11.1	2
0	13536	11.15	3
0	13537	11.15	2
0	13538	11.15	3
0	13539	11.15	2
0	13660	11.2	3
0	13661	11.2	2
0	13662	11.2	3
0	13663	11.2	2
0	13664	11.2	3
0	13665	11.2	2
0	13666	11.2	3
0	13667	11.2	2
0	13823	11.25	3
0	13824	11.25	2
0	13825	11.25	3
0	13826	11.25	2
0	13916	11.3	3
0	13917	11.3	2
0	13918	11.3	3
0	13919	11.3	2
0	13920	11.3	3
0	13921	11.3	2
0	13922	11.3	3
0	13923	11.3	2
0	13964	11.35	3
0	13965	11.35	2
0	13966	11.35	3
0	13967	11.35	2
0	14000	11.4	3
0	14001	11.4	2
0	14002	11.4	3
0	14003	11.4	2
0	14004	11.4	3
0	14005	11.4	2
0	14006	11.4	3
0	14007	11.4	2
0	14048	11.45	3
0	14049	11.45	2
0	14050	11.45	3
0	14051	11.45	2
0	14084	11.5	3
0	14085	11.5	2
0	14086	11.5	3
0	14087	11.5	2
0	14088	11.5	3
0	14089	11.5	2
0	14090	11.5	3
0	14091	11.5	2
0	14155	11.55	3
0	14156	11.55	2
0	14157	11.55	3
0	14158	11.55	2
0	14260	11.6	3
0	14261	11.6	2
0	14262	11.6	3
0	14263	11.6	2
0	14264	11.6	3
0	14265	11.6	2
0	14266	11.6	3
0	14267	11.6	2
0	14331	11.65	3
0	14332	11.65	2
0	14333	11.65	3
0	14334	11.65	2
0	14426	11.7	3
0	14427	11.7	2
0	14428	11.7	3
0	14429	11.7	2
0	14430	11.7	3
0	14431	11.7	2
0	14432	11.7	3
0	14433	11.7	2
0	14519	11.75	3
0	14520	11.75	2
0	14521	11.75	3
0	14522	11.75	2
0	14578	11.8	3
0	14579	11.8	2
0	14580	11.8	3
0	14581	11.8	2
0	14582	11.8	3
0	14583	11.8	2
0	14584	11.8	3
0	14585	11.8	2
0	14626	11.85	3
0	14627	11.85	2
0	14628	11.85	3
0	14629	11.85	2
0	14662	11.9	3
0	14663	11.9	2
0	14664	11.9	3
0	14665	11.9	2
0	14666	11.9	3
0	14667	11.9	2
0	14668	11.9	3
0	14669	11.9	2
0	14710	11.95	3
0	14711	11.95	2
0	14712	11.95	3
0	14713	11.95	2
0	14747	12	3
0	14748	12	2
0	14749	12	3
0	14750	12	2
0	14751	12	3
0	14752	12	2
0	14753	12	3
0	14754	12	2
0	14795	12.05	3
0	14796	12.05	2
0	14797	12.05	3
0	14798	12.05	2
0	14858	12.1	3
0	14859	12.1	2
0	14860	12.1	3
0	14861	12.1	2
0	14862	12.1	3
0	14863	12.1	2
0	14864	12.1	3
0	14865	12.1	2
0	14985	12.15	3
0	14986	12.15	2
0	14987	12.15	3
0	14988	12.15	2
0	15038	12.2	3
0	15039	12.2	2
0	15040	12.2	3
0	15041	12.2	2
0	15042	12.2	3
0	15043	12.2	2
0	15044	12.2	3
0	15045	12.2	2
0	15143	12.25	3
0	15144	12.25	2
0	15145	12.25	3
0	15146	12.25	2
0	15231	12.3	3
0	15232	12.3	2
0	15233	12.3	3
0	15234	12.3	2
0	15235	12.3	3
0	15236	12.3	2
0	15237	12.3	3
0	15238	12.3	2
0	15312	12.35	3
0	15313	12.35	2
0	15314	12.35	3
0	15315	12.35	2
0	15348	12.4	3
0	15349	12.4	2
0	15350	12.4	3
0	15351	12.4	2
0	15352	12.4	3
0	15353	12.4	2
0	15354	12.4	3
0	15355	12.4	2
0	15396	12.45	3
0	15397	12.45	2
0	15398	12.45	3
0	15399	12.45	2
0	15432	12.5	3
0	15433	12.5	2
0	15434	12.5	3
0	15435	12.5	2
0	15436	12.5	3
0	15437	12.5	2
0	15438	12.5	3
0	15439	12.5	2
0	15480	12.55	3
0	15481	12.55	2
0	15482	12.55	3
0	15483	12.55	2
0	15516	12.6	3
0	15517	12.6	2
0	15518	12.6	3
0	15519	12.6	2
0	15520	12.6	3
0	15521	12.6	2
0	15522	12.6	3
0	15523	12.6	2
0	15581	12.65	3
0	15582	12.65	2
0	15583	12.65	3
0	15584	12.65	2
0	15686	12.7	3
0	15687	12.7	2
0	15688	12.7	3
0	15689	12.7	2
0	15690	12.7	3
0	15691	12.7	2
0	15692	12.7	3
0	15693	12.7	2
0	15757	12.75	3
0	15758	12.75	2
0	15759	12.75	3
0	15760	12.75	2
0	15816	12.8	3
0	15817	12.8	2
0	15818	12.8	3
0	15819	12.8	2
0	15820	12.8	3
0	15821	12.8	2
0	15822	12.8	3
0	15823	12.8	2
0	15887	12.85	3
0	15888	12.85	2
0	15889	12.85	3
0	15890	12.85	2
0	15967	12.9	3
0	15968	12.9	2
0	15969	12.9	3
0	15970	12.9	2
0	15971	12.9	3
0	15972	12.9	2
0	15973	12.9	3
0	15974	12.9	2
0	16015	12.95	3
0	16016	12.95	2
0	16017	12.95	3
0	16018	12.95	2
0	16051	13	3
0	16052	13	2
0	16053	13	3
0	16054	13	2
0	16055	13	3
0	16056	13	2
0	16057	13	3
0	16058	13	2
0	16099	13.05	3
0	16100	13.05	2
0	16101	13.05	3
0	16102	13.05	2
0	16139	13.1	3
0	16140	13.1	2
0	16141	13.1	3
0	16142	13.1	2
0	16143	13.1	3
0	16144	13.1	2
0	16145	13.1	3
0	16146	13.1	2
0	16192	13.15	3
0	16193	13.15	2
0	16194	13.15	3
0	16195	13.15	2
0	16251	13.2	3
0	16252	13.2	2
0	16253	13.2	3
0	16254	13.2	2
0	16255	13.2	3
0	16256	13.2	2
0	16257	13.2	3
0	16258	13.2	2
0	16368	13.25	3
0	16369	13.25	2
0	16370	13.25	3
0	16371	13.25	2
0	16427	13.3	3
0	16428	13.3	2
0	16429	13.3	3
0	16430	13.3	2
0	16431	13.3	3
0	16432	13.3	2
0	16433	13.3	3
0	16434	13.3	2
0	16519	13.35	3
0	16520	13.35	2
0	16521	13.35	3
0	16522	13.35	2
0	16599	13.4	3
0	16600	13.4	2
0	16601	13.4	3
0	16602	13.4	2
0	16603	13.4	3
0	16604	13.4	2
0	16605	13.4	3
0	16606	13.4	2
0	16691	13.45	3
0	16692	13.45	2
0	16693	13.45	3
0	16694	13.45	2
0	16727	13.5	3
0	16728	13.5	2
0	16729	13.5	3
0	16730	13.5	2
0	16731	13.5	3
0	16732	13.5	2
0	16733	13.5	3
0	16734	13.5	2
0	16775	13.55	3
0	16776	13.55	2
0	16777	13.55	3
0	16778	13.55	2
0	16811	13.6	3
0	16812	13.6	2
0	16813	13.6	3
0	16814	13.6	2
0	16815	13.6	3
0	16816	13.6	2
0	16817	13.6	3
0	16818	13.6	2
0	16859	13.65	3
0	16860	13.65	2
0	16861	13.65	3
0	16862	13.65	2
0	16895	13.7	3
0	16896	13.7	2
0	16897	13.7	3
0	16898	13.7	2
0	16899	13.7	3
0	16900	13.7	2
0	16901	13.7	3
0	16902	13.7	2
0	16983	13.75	3
0	16984	13.75	2
0	16985	13.75	3
0	16986	13.75	2
0	17088	13.8	3
0	17089	13.8	2
0	17090	13.8	3
0	17091	13.8	2
0	17092	13.8	3
0	17093	13.8	2
0	17094	13.8	3
0	17095	13.8	2
0	17159	13.85	3
0	17160	13.85	2
0	17161	13.85	3
0	17162	13.85	2
0	17223	13.9	3
0	17224	13.9	2
0	17225	13.9	3
0	17226	13.9	2
0	17227	13.9	3
0	17228	13.9	2
0	17229	13.9	3
0	17230	13.9	2
0	17294	13.95	3
0	17295	13.95	2
0	17296	13.95	3
0	17297	13.95	2
0	17353	14	3
0	17354	14	2
0	17355	14	3
0	17356	14	2
0	17357	14	3
0	17358	14	2
0	17359	14	3
0	17360	14	2
0	17401	14.05	3
0	17402	14.05	2
0	17403	14.05	3
0	17404	14.05	2
0	17441	14.1	3
0	17442	14.1	2
0	17443	14.1	3
0	17444	14.1	2
0	17445	14.1	3
0	17446	14.1	2
0	17447	14.1	3
0	17448	14.1	2
0	17494	14.15	3
0	17495	14.15	2
0	17496	14.15	3
0	17497	14.15	2
0	17530	14.2	3
0	17531	14.2	2
0	17532	14.2	3
0	17533	14.2	2
0	17534	14.2	3
0	17535	14.2	2
0	17536	14.2	3
0	17537	14.2	2
0	17578	14.25	3
0	17579	14.25	2
0	17580	14.25	3
0	17581	14.25	2
0	17637	14.3	3
0	17638	14.3	2
0	17639	14.3	3
0	17640	14.3	2
0	17641	14.3	3
0	17642	14.3	2
0	17643	14.3	3
0	17644	14.3	2
0	17754	14.35	3
0	17755	14.35	2
0	17756	14.35	3
0	17757	14.35	2
0	17813	14.4	3
0	17814	14.4	2
0	17815	14.4	3
0	17816	14.4	2
0	17817	14.4	3
0	17818	14.4	2
0	17819	14.4	3
0	17820	14.4	2
0	17878	14.45	3
0	17879	14.45	2
0	17880	14.45	3
0	17881	14.45	2
0	17958	14.5	3
0	17959	14.5	2
0	17960	14.5	3
0	17961	14.5	2
0	17962	14.5	3
0	17963	14.5	2
0	17964	14.5	3
0	17965	14.5	2
0	18023	14.55	3
0	18024	14.55	2
0	18025	14.55	3
0	18026	14.55	2
0	18059	14.6	3
0	18060	14.6	2
0	18061	14.6	3
0	18062	14.6	2
0	18063	14.6	3
0	18064	14.6	2
0	18065	14.6	3
0	18066	14.6	2
0	18107	14.65	3
0	18108	14.65	2
0	18109	14.65	3
0	18110	14.65	2
0	18143	14.7	3
0	18144	14.7	2
0	18145	14.7	3
0	18146	14.7	2
0	18147	14.7	3
0	18148	14.7	2
0	18149	14.7	3
0	18150	14.7	2
0	18191	14.75	3
0	18192	14.75	2
0	18193	14.75	3
0	18194	14.75	2
0	18227	14.8	3
0	18228	14.8	2
0	18229	14.8	3
0	18230	14.8	2
0	18231	14.8	3
0	18232	14.8	2
0	18233	14.8	3
0	18234	14.8	2
0	18298	14.85	3
0	18299	14.85	2
0	18300	14.85	3
0	18301	14.85	2
0	18403	14.9	3
0	18404	14.9	2
0	18405	14.9	3
0	18406	14.9	2
0	18407	14.9	3
0	18408	14.9	2
0	18409	14.9	3
0	18410	14.9	2
0	18474	14.95	3
0	18475	14.95	2
0	18476	14.95	3
0	18477	14.95	2
0	18554	15	3
0	18555	15	2
0	18556	15	3
0	18557	15	2
0	18558	15	3
0	18559	15	2
0	18560	15	3
0	18561	15	2
0	18625	15.05	3
0	18626	15.05	2
0	18627	15.05	3
0	18628	15.05	2
0	18670	15.1	3
0	18671	15.1	2
0	18672	15.1	3
0	18673	15.1	2
0	18674	15.1	3
0	18675	15.1	2
0	18676	15.1	3
0	18677	15.1	2
0	18723	15.15	3
0	18724	15.15	2
0	18725	15.15	3
0	18726	15.15	2
0	18759	15.2	3
0	18760	15.2	2
0	18761	15.2	3
0	18762	15.2	2
0	18763	15.2	3
0	18764	15.2	2
0	18765	15.2	3
0	18766	15.2	2
0	18807	15.25	3
0	18808	15.25	2
0	18809	15.25	3
0	18810	15.25	2
0	18843	15.3	3
0	18844	15.3	2
0	18845	15.3	3
0	18846	15.3	2
0	18847	15.3	3
0	18848	15.3	2
0	18849	15.3	3
0	18850	15.3	2
0	18896	15.35	3
0	18897	15.35	2
0	18898	15.35	3
0	18899	15.35	2
0	18937	15.4	3
0	18938	15.4	2
0	18939	15.4	3
0	18940	15.4	2
0	18941	15.4	3
0	18942	15.4	2
0	18943	15.4	3
0	18944	15.4	2
0	19054	15.45	3
0	19055	15.45	2
0	19056	15.45	3
0	19057	15.45	2
0	19095	15.5	3
0	19096	15.5	2
0	19097	15.5	3
0	19098	15.5	2
0	19099	15.5	3
0	19100	15.5	2
0	19101	15.5	3
0	19102	15.5	2
0	19143	15.55	3
0	19144	15.55	2
0	19145	15.55	3
0	19146	15.55	2
0	19223	15.6	3
0	19224	15.6	2
0	19225	15.6	3
0	19226	15.6	2
0	19227	15.6	3
0	19228	15.6	2
0	19229	15.6	3
0	19230	15.6	2
0	19271	15.65	3
0	19272	15.65	2
0	19273	15.65	3
0	19274	15.65	2
0	19307	15.7	3
0	19308	15.7	2
0	19309	15.7	3
0	19310	15.7	2
0	19311	15.7	3
0	19312	15.7	2
0	19313	15.7	3
0	19314	15.7	2
0	19355	15.75	3
0	19356	15.75	2
0	19357	15.75	3
0	19358	15.75	2
0	19391	15.8	3
0	19392	15.8	2
0	19393	15.8	3
0	19394	15.8	2
0	19395	15.8	3
0	19396	15.8	2
0	19397	15.8	3
0	19398	15.8	2
0	19439	15.85	3
0	19440	15.85	2
0	19441	15.85	3
0	19442	15.85	2
0	19475	15.9	3
0	19476	15.9	2
0	19477	15.9	3
0	19478	15.9	2
0	19479	15.9	3
0	19480	15.9	2
0	19481	15.9	3
0	19482	15.9	2
0	19523	15.95	3
0	19524	15.95	2
0	19525	15.95	3
0	19526	15.95	2
0	19631	16	3
0	19632	16	2
0	19633	16	3
0	19634	16	2
0	19635	16	3
0	19636	16	2
0	19637	16	3
0	19638	16	2
0	19679	16.05	3
0	19680	16.05	2
0	19681	16.05	3
0	19682	16.05	2
0	19719	16.1	3
0	19720	16.1	2
0	19721	16.1	3
0	19722	16.1	2
0	19723	16.1	3
0	19724	16.1	2
0	19725	16.1	3
0	19726	16.1	2
0	19816	16.15	3
0	19817	16.15	2
0	19818	16.15	3
0	19819	16.15	2
0	19852	16.2	3
0	19853	16.2	2
0	19854	16.2	3
0	19855	16.2	2
0	19856	16.2	3
0	19857	16.2	2
0	19858	16.2	3
0	19859	16.2	2
0	19900	16.25	3
0	19901	16.25	2
0	19902	16.25	3
0	19903	16.25	2
0	19936	16.3	3
0	19937	16.3	2
0	19938	16.3	3
0	19939	16.3	2
0	19940	16.3	3
0	19941	16.3	2
0	19942	16.3	3
0	19943	16.3	2
0	19984	16.35	3
0	19985	16.35	2
0	19986	16.35	3
0	19987	16.35	2
0	20020	16.4	3
0	20021	16.4	2
0	20022	16.4	3
0	20023	16.4	2
0	20024	16.4	3
0	20025	16.4	2
0	20026	16.4	3
0	20027	16.4	2
0	20068	16.45	3
0	20069	16.45	2
0	20070	16.45	3
0	20071	16.45	2
0	20104	16.5	3
0	20105	16.5	2
0	20106	16.5	3
0	20107	16.5	2
0	20108	16.5	3
0	20109	16.5	2
0	20110	16.5	3
0	20111	16.5	2
0	20244	16.55	3
0	20245	16.55	2
0	20246	16.55	3
0	20247	16.55	2
0	20337	16.6	3
0	20338	16.6	2
0	20339	16.6	3
0	20340	16.6	2
0	20341	16.6	3
0	20342	16.6	2
0	20343	16.6	3
0	20344	16.6	2
0	20388	16.65	3
0	20389	16.65	2
0	20390	16.65	3
0	20391	16.65	2
0	20495	16.7	3
0	20496	16.7	2
0	20497	16.7	3
0	20498	16.7	2
0	20499	16.7	3
0	20500	16.7	2
0	20501	16.7	3
0	20502	16.7	2
0	20604	16.75	3
0	20605	16.75	2
0	20606	16.75	3
0	20607	16.75	2
0	20640	16.8	3
0	20641	16.8	2
0	20642	16.8	3
0	20643	16.8	2
0	20644	16.8	3
0	20645	16.8	2
0	20646	16.8	3
0	20647	16.8	2
0	20688	16.85	3
0	20689	16.85	2
0	20690	16.85	3
0	20691	16.85	2
0	20724	16.9	3
0	20725	16.9	2
0	20726	16.9	3
0	20727	16.9	2
0	20728	16.9	3
0	20729	16.9	2
0	20730	16.9	3
0	20731	16.9	2
0	20777	16.95	3
0	20778	16.95	2
0	20779	16.95	3
0	20780	16.95	2
0	20814	17	3
0	20815	17	2
0	20816	17	3
0	20817	17	2
0	20818	17	3
0	20819	17	2
0	20820	17	3
0	20821	17	2
0	20862	17.05	3
0	20863	17.05	2
0	20864	17.05	3
0	20865	17.05	2
0	21011	17.1	3
0	21012	17.1	2
0	21013	17.1	3
0	21014	17.1	2
0	21015	17.1	3
0	21016	17.1	2
0	21017	17.1	3
0	21018	17.1	2
0	21121	17.15	3
0	21122	17.15	2
0	21123	17.15	3
0	21124	17.15	2
0	21165	17.2	3
0	21166	17.2	2
0	21167	17.2	3
0	21168	17.2	2
0	21169	17.2	3
0	21170	17.2	2
0	21171	17.2	3
0	21172	17.2	2
0	21301	17.25	3
0	21302	17.25	2
0	21303	17.25	3
0	21304	17.25	2
0	21360	17.3	3
0	21361	17.3	2
0	21362	17.3	3
0	21363	17.3	2
0	21364	17.3	3
0	21365	17.3	2
0	21366	17.3	3
0	21367	17.3	2
0	21408	17.35	3
0	21409	17.35	2
0	21410	17.35	3
0	21411	17.35	2
0	21444	17.4	3
0	21445	17.4	2
0	21446	17.4	3
0	21447	17.4	2
0	21448	17.4	3
0	21449	17.4	2
0	21450	17.4	3
0	21451	17.4	2
0	21492	17.45	3
0	21493	17.45	2
0	21494	17.45	3
0	21495	17.45	2
0	21533	17.5	3
0	21534	17.5	2
0	21535	17.5	3
0	21536	17.5	2
0	21537	17.5	3
0	21538	17.5	2
0	21539	17.5	3
0	21540	17.5	2
0	21581	17.55	3
0	21582	17.55	2
0	21583	17.55	3
0	21584	17.55	2
0	21617	17.6	3
0	21618	17.6	2
0	21619	17.6	3
0	21620	17.6	2
0	21621	17.6	3
0	21622	17.6	2
0	21623	17.6	3
0	21624	17.6	2
0	21757	17.65	3
0	21758	17.65	2
0	21759	17.65	3
0	21760	17.65	2
0	21816	17.7	3
0	21817	17.7	2
0	21818	17.7	3
0	21819	17.7	2
0	21820	17.7	3
0	21821	17.7	2
0	21822	17.7	3
0	21823	17.7	2
0	21864	17.75	3
0	21865	17.75	2
0	21866	17.75	3
0	21867	17.75	2
0	21946	17.8	3
0	21947	17.8	2
0	21948	17.8	3
0	21949	17.8	2
0	21950	17.8	3
0	21951	17.8	2
0	21952	17.8	3
0	21953	17.8	2
0	22017	17.85	3
0	22018	17.85	2
0	22019	17.85	3
0	22020	17.85	2
0	22053	17.9	3
0	22054	17.9	2
0	22055	17.9	3
0	22056	17.9	2
0	22057	17.9	3
0	22058	17.9	2
0	22059	17.9	3
0	22060	17.9	2
0	22101	17.95	3
0	22102	17.95	2
0	22103	17.95	3
0	22104	17.95	2
0	22137	18	3
0	22138	18	2
0	22139	18	3
0	22140	18	2
0	22141	18	3
0	22142	18	2
0	22143	18	3
0	22144	18	2
0	22185	18.05	3
0	22186	18.05	2
0	22187	18.05	3
0	22188	18.05	2
0	22225	18.1	3
0	22226	18.1	2
0	22227	18.1	3
0	22228	18.1	2
0	22229	18.1	3
0	22230	18.1	2
0	22231	18.1	3
0	22232	18.1	2
0	22278	18.15	3
0	22279	18.15	2
0	22280	18.15	3
0	22281	18.15	2
0	22406	18.2	3
0	22407	18.2	2
0	22408	18.2	3
0	22409	18.2	2
0	22410	18.2	3
0	22411	18.2	2
0	22412	18.2	3
0	22413	18.2	2
0	22498	18.25	3
0	22499	18.25	2
0	22500	18.25	3
0	22501	18.25	2
0	22534	18.3	3
0	22535	18.3	2
0	22536	18.3	3
0	22537	18.3	2
0	22538	18.3	3
0	22539	18.3	2
0	22540	18.3	3
0	22541	18.3	2
0	22670	18.35	3
0	22671	18.35	2
0	22672	18.35	3
0	22673	18.35	2
0	22729	18.4	3
0	22730	18.4	2
0	22731	18.4	3
0	22732	18.4	2
0	22733	18.4	3
0	22734	18.4	2
0	22735	18.4	3
0	22736	18.4	2
0	22777	18.45	3
0	22778	18.45	2
0	22779	18.45	3
0	22780	18.45	2
0	22813	18.5	3
0	22814	18.5	2
0	22815	18.5	3
0	22816	18.5	2
0	22817	18.5	3
0	22818	18.5	2
0	22819	18.5	3
0	22820	18.5	2
0	22861	18.55	3
0	22862	18.55	2
0	22863	18.55	3
0	22864	18.55	2
0	22897	18.6	3
0	22898	18.6	2
0	22899	18.6	3
0	22900	18.6	2
0	22901	18.6	3
0	22902	18.6	2
0	22903	18.6	3
0	22904	18.6	2
0	22945	18.65	3
0	22946	18.65	2
0	22947	18.65	3
0	22948	18.65	2
0	22986	18.7	3
0	22987	18.7	2
0	22988	18.7	3
0	22989	18.7	2
0	22990	18.7	3
0	22991	18.7	2
0	22992	18.7	3
0	22993	18.7	2
0	23126	18.75	3
0	23127	18.75	2
0	23128	18.75	3
0	23129	18.75	2
0	23185	18.8	3
0	23186	18.8	2
0	23187	18.8	3
0	23188	18.8	2
0	23189	18.8	3
0	23190	18.8	2
0	23191	18.8	3
0	23192	18.8	2
0	23233	18.85	3
0	23234	18.85	2
0	23235	18.85	3
0	23236	18.85	2
0	23315	18.9	3
0	23316	18.9	2
0	23317	18.9	3
0	23318	18.9	2
0	23319	18.9	3
0	23320	18.9	2
0	23321	18.9	3
0	23322	18.9	2
0	23386	18.95	3
0	23387	18.95	2
0	23388	18.95	3
0	23389	18.95	2
0	23422	19	3
0	23423	19	2
0	23424	19	3
0	23425	19	2
0	23426	19	3
0	23427	19	2
0	23428	19	3
0	23429	19	2
0	23470	19.05	3
0	23471	19.05	2
0	23472	19.05	3
0	23473	19.05	2
0	23527	19.1	3
0	23528	19.1	2
0	23529	19.1	3
0	23530	19.1	2
0	23531	19.1	3
0	23532	19.1	2
0	23533	19.1	3
0	23534	19.1	2
0	23580	19.15	3
0	23581	19.15	2
0	23582	19.15	3
0	23583	19.15	2
0	23616	19.2	3
0	23617	19.2	2
0	23618	19.2	3
0	23619	19.2	2
0	23620	19.2	3
0	23621	19.2	2
0	23622	19.2	3
0	23623	19.2	2
0	23687	19.25	3
0	23688	19.25	2
0	23689	19.25	3
0	23690	19.25	2
0	23815	19.3	3
0	23816	19.3	2
0	23817	19.3	3
0	23818	19.3	2
0	23819	19.3	3
0	23820	19.3	2
0	23821	19.3	3
0	23822	19.3	2
0	23907	19.35	3
0	23908	19.35	2
0	23909	19.35	3
0	23910	19.35	2
0	23943	19.4	3
0	23944	19.4	2
0	23945	19.4	3
0	23946	19.4	2
0	23947	19.4	3
0	23948	19.4	2
0	23949	19.4	3
0	23950	19.4	2
0	24063	19.45	3
0	24064	19.45	2
0	24065	19.45	3
0	24066	19.45	2
0	24122	19.5	3
0	24123	19.5	2
0	24124	19.5	3
0	24125	19.5	2
0	24126	19.5	3
0	24127	19.5	2
0	24128	19.5	3
0	24129	19.5	2
0	24170	19.55	3
0	24171	19.55	2
0	24172	19.55	3
0	24173	19.55	2
0	24206	19.6	3
0	24207	19.6	2
0	24208	19.6	3
0	24209	19.6	2
0	24210	19.6	3
0	24211	19.6	2
0	24212	19.6	3
0	24213	19.6	2
0	24271	19.65	3
0	24272	19.65	2
0	24273	19.65	3
0	24274	19.65	2
0	24307	19.7	3
0	24308	19.7	2
0	24309	19.7	3
0	24310	19.7	2
0	24311	19.7	3
0	24312	19.7	2
0	24313	19.7	3
0	24314	19.7	2
0	24355	19.75	3
0	24356	19.75	2
0	24357	19.75	3
0	24358	19.75	2
0	24396	19.8	3
0	24397	19.8	2
0	24398	19.8	3
0	24399	19.8	2
0	24400	19.8	3
0	24401	19.8	2
0	24402	19.8	3
0	24403	19.8	2
0	24536	19.85	3
0	24537	19.85	2
0	24538	19.85	3
0	24539	19.85	2
0	24595	19.9	3
0	24596	19.9	2
0	24597	19.9	3
0	24598	19.9	2
0	24599	19.9	3
0	24600	19.9	2
0	24601	19.9	3
0	24602	19.9	2
0	24643	19.95	3
0	24644	19.95	2
0	24645	19.95	3
0	24646	19.95	2
0	24746	20	3
0	24747	20	2
0	24748	20	3
0	24749	20	2
0	24750	20	3
0	24751	20	2
0	24752	20	3
0	24753	20	2
0	24811	20.05	3
0	24812	20.05	2
0	24813	20.05	3
0	24814	20.05	2
0	24851	20.1	3
0	24852	20.1	2
0	24853	20.1	3
0	24854	20.1	2
0	24855	20.1	3
0	24856	20.1	2
0	24857	20.1	3
0	24858	20.1	2
0	24904	20.15	3
0	24905	20.15	2
0	24906	20.15	3
0	24907	20.15	2
0	24940	20.2	3
0	24941	20.2	2
0	24942	20.2	3
0	24943	20.2	2
0	24944	20.2	3
0	24945	20.2	2
0	24946	20.2	3
0	24947	20.2	2
0	24988	20.25	3
0	24989	20.25	2
0	24990	20.25	3
0	24991	20.25	2
0	25024	20.3	3
0	25025	20.3	2
0	25026	20.3	3
0	25027	20.3	2
0	25028	20.3	3
0	25029	20.3	2
0	25030	20.3	3
0	25031	20.3	2
0	25072	20.35	3
0	25073	20.35	2
0	25074	20.35	3
0	25075	20.35	2
0	25194	20.4	3
0	25195	20.4	2
0	25196	20.4	3
0	25197	20.4	2
0	25198	20.4	3
0	25199	20.4	2
0	25200	20.4	3
0	25201	20.4	2
0	25286	20.45	3
0	25287	20.45	2
0	25288	20.45	3
0	25289	20.45	2
0	25322	20.5	3
0	25323	20.5	2
0	25324	20.5	3
0	25325	20.5	2
0	25326	20.5	3
0	25327	20.5	2
0	25328	20.5	3
0	25329	20.5	2
0	25458	20.55	3
0	25459	20.55	2
0	25460	20.55	3
0	25461	20.55	2
0	25517	20.6	3
0	25518	20.6	2
0	25519	20.6	3
0	25520	20.6	2
0	25521	20.6	3
0	25522	20.6	2
0	25523	20.6	3
0	25524	20.6	2
0	25565	20.65	3
0	25566	20.65	2
0	25567	20.65	3
0	25568	20.65	2
0	25601	20.7	3
0	25602	20.7	2
0	25603	20.7	3
0	25604	20.7	2
0	25605	20.7	3
0	25606	20.7	2
0	25607	20.7	3
0	25608	20.7	2
0	25649	20.75	3
0	25650	20.75	2
0	25651	20.75	3
0	25652	20.75	2
0	25685	20.8	3
0	25686	20.8	2
0	25687	20.8	3
0	25688	20.8	2
0	25689	20.8	3
0	25690	20.8	2
0	25691	20.8	3
0	25692	20.8	2
0	25733	20.85	3
0	25734	20.85	2
0	25735	20.85	3
0	25736	20.85	2
0	25769	20.9	3
0	25770	20.9	2
0	25771	20.9	3
0	25772	20.9	2
0	25773	20.9	3
0	25774	20.9	2
0	25775	20.9	3
0	25776	20.9	2
0	25909	20.95	3
0	25910	20.95	2
0	25911	20.95	3
0	25912	20.95	2
0	25971	21	3
0	25972	21	2
0	25973	21	3
0	25974	21	2
0	25975	21	3
0	25976	21	2
0	25977	21	3
0	25978	21	2
0	26019	21.05	3
0	26020	21.05	2
0	26021	21.05	3
0	26022	21.05	2
0	26105	21.1	3
0	26106	21.1	2
0	26107	21.1	3
0	26108	21.1	2
0	26109	21.1	3
0	26110	21.1	2
0	26111	21.1	3
0	26112	21.1	2
0	26181	21.15	3
0	26182	21.15	2
0	26183	21.15	3
0	26184	21.15	2
0	26217	21.2	3
0	26218	21.2	2
0	26219	21.2	3
0	26220	21.2	2
0	26221	21.2	3
0	26222	21.2	2
0	26223	21.2	3
0	26224	21.2	2
0	26288	21.25	3
0	26289	21.25	2
0	26290	21.25	3
0	26291	21.25	2
0	26324	21.3	3
0	26325	21.3	2
0	26326	21.3	3
0	26327	21.3	2
0	26328	21.3	3
0	26329	21.3	2
0	26330	21.3	3
0	26331	21.3	2
0	26372	21.35	3
0	26373	21.35	2
0	26374	21.35	3
0	26375	21.35	2
0	26425	21.4	3
0	26426	21.4	2
0	26427	21.4	3
0	26428	21.4	2
0	26429	21.4	3
0	26430	21.4	2
0	26431	21.4	3
0	26432	21.4	2
0	26473	21.45	3
0	26474	21.45	2
0	26475	21.45	3
0	26476	21.45	2
0	26601	21.5	3
0	26602	21.5	2
0	26603	21.5	3
0	26604	21.5	2
0	26605	21.5	3
0	26606	21.5	2
0	26607	21.5	3
0	26608	21.5	2
0	26693	21.55	3
0	26694	21.55	2
0	26695	21.55	3
0	26696	21.55	2
0	26729	21.6	3
0	26730	21.6	2
0	26731	21.6	3
0	26732	21.6	2
0	26733	21.6	3
0	26734	21.6	2
0	26735	21.6	3
0	26736	21.6	2
0	26865	21.65	3
0	26866	21.65	2
0	26867	21.65	3
0	26868	21.65	2
0	26924	21.7	3
0	26925	21.7	2
0	26926	21.7	3
0	26927	21.7	2
0	26928	21.7	3
0	26929	21.7	2
0	26930	21.7	3
0	26931	21.7	2
0	26972	21.75	3
0	26973	21.75	2
0	26974	21.75	3
0	26975	21.75	2
0	27025	21.8	3
0	27026	21.8	2
0	27027	21.8	3
0	27028	21.8	2
0	27029	21.8	3
0	27030	21.8	2
0	27031	21.8	3
0	27032	21.8	2
0	27073	21.85	3
0	27074	21.85	2
0	27075	21.85	3
0	27076	21.85	2
0	27109	21.9	3
0	27110	21.9	2
0	27111	21.9	3
0	27112	21.9	2
0	27113	21.9	3
0	27114	21.9	2
0	27115	21.9	3
0	27116	21.9	2
0	27162	21.95	3
0	27163	21.95	2
0	27164	21.95	3
0	27165	21.95	2
0	27199	22	3
0	27200	22	2
0	27201	22	3
0	27202	22	2
0	27203	22	3
0	27204	22	2
0	27205	22	3
0	27206	22	2
0	27321	22.05	3
0	27322	22.05	2
0	27323	22.05	3
0	27324	22.05	2
0	27384	22.1	3
0	27385	22.1	2
0	27386	22.1	3
0	27387	22.1	2
0	27388	22.1	3
0	27389	22.1	2
0	27390	22.1	3
0	27391	22.1	2
0	27437	22.15	3
0	27438	22.15	2
0	27439	22.15	3
0	27440	22.15	2
0	27517	22.2	3
0	27518	22.2	2
0	27519	22.2	3
0	27520	22.2	2
0	27521	22.2	3
0	27522	22.2	2
0	27523	22.2	3
0	27524	22.2	2
0	27588	22.25	3
0	27589	22.25	2
0	27590	22.25	3
0	27591	22.25	2
0	27624	22.3	3
0	27625	22.3	2
0	27626	22.3	3
0	27627	22.3	2
0	27628	22.3	3
0	27629	22.3	2
0	27630	22.3	3
0	27631	22.3	2
0	27672	22.35	3
0	27673	22.35	2
0	27674	22.35	3
0	27675	22.35	2
0	27708	22.4	3
0	27709	22.4	2
0	27710	22.4	3
0	27711	22.4	2
0	27712	22.4	3
0	27713	22.4	2
0	27714	22.4	3
0	27715	22.4	2
0	27756	22.45	3
0	27757	22.45	2
0	27758	22.45	3
0	27759	22.45	2
0	27792	22.5	3
0	27793	22.5	2
0	27794	22.5	3
0	27795	22.5	2
0	27796	22.5	3
0	27797	22.5	2
0	27798	22.5	3
0	27799	22.5	2
0	27840	22.55	3
0	27841	22.55	2
0	27842	22.55	3
0	27843	22.55	2
0	27945	22.6	3
0	27946	22.6	2
0	27947	22.6	3
0	27948	22.6	2
0	27949	22.6	3
0	27950	22.6	2
0	27951	22.6	3
0	27952	22.6	2
0	28037	22.65	3
0	28038	22.65	2
0	28039	22.65	3
0	28040	22.65	2
0	28073	22.7	3
0	28074	22.7	2
0	28075	22.7	3
0	28076	22.7	2
0	28077	22.7	3
0	28078	22.7	2
0	28079	22.7	3
0	28080	22.7	2
0	28144	22.75	3
0	28145	22.75	2
0	28146	22.75	3
0	28147	22.75	2
0	28203	22.8	3
0	28204	22.8	2
0	28205	22.8	3
0	28206	22.8	2
0	28207	22.8	3
0	28208	22.8	2
0	28209	22.8	3
0	28210	22.8	2
0	28251	22.85	3
0	28252	22.85	2
0	28253	22.85	3
0	28254	22.85	2
0	28287	22.9	3
0	28288	22.9	2
0	28289	22.9	3
0	28290	22.9	2
0	28291	22.9	3
0	28292	22.9	2
0	28293	22.9	3
0	28294	22.9	2
0	28335	22.95	3
0	28336	22.95	2
0	28337	22.95	3
0	28338	22.95	2
0	28371	23	3
0	28372	23	2
0	28373	23	3
0	28374	23	2
0	28375	23	3
0	28376	23	2
0	28377	23	3
0	28378	23	2
0	28419	23.05	3
0	28420	23.05	2
0	28421	23.05	3
0	28422	23.05	2
0	28459	23.1	3
0	28460	23.1	2
0	28461	23.1	3
0	28462	23.1	2
0	28463	23.1	3
0	28464	23.1	2
0	28465	23.1	3
0	28466	23.1	2
0	28581	23.15	3
0	28582	23.15	2
0	28583	23.15	3
0	28584	23.15	2
0	28661	23.2	3
0	28662	23.2	2
0	28663	23.2	3
0	28664	23.2	2
0	28665	23.2	3
0	28666	23.2	2
0	28667	23.2	3
0	28668	23.2	2
0	28761	23.25	3
0	28762	23.25	2
0	28763	23.25	3
0	28764	23.25	2
0	28849	23.3	3
0	28850	23.3	2
0	28851	23.3	3
0	28852	23.3	2
0	28853	23.3	3
0	28854	23.3	2
0	28855	23.3	3
0	28856	23.3	2
0	28914	23.35	3
0	28915	23.35	2
0	28916	23.35	3
0	28917	23.35	2
0	28978	23.4	3
0	28979	23.4	2
0	28980	23.4	3
0	28981	23.4	2
0	28982	23.4	3
0	28983	23.4	2
0	28984	23.4	3
0	28985	23.4	2
0	29026	23.45	3
0	29027	23.45	2
0	29028	23.45	3
0	29029	23.45	2
0	29062	23.5	3
0	29063	23.5	2
0	29064	23.5	3
0	29065	23.5	2
0	29066	23.5	3
0	29067	23.5	2
0	29068	23.5	3
0	29069	23.5	2
0	29127	23.55	3
0	29128	23.55	2
0	29129	23.55	3
0	29130	23.55	2
0	29163	23.6	3
0	29164	23.6	2
0	29165	23.6	3
0	29166	23.6	2
0	29167	23.6	3
0	29168	23.6	2
0	29169	23.6	3
0	29170	23.6	2
0	29211	23.65	3
0	29212	23.65	2
0	29213	23.65	3
0	29214	23.65	2
0	29316	23.7	3
0	29317	23.7	2
0	29318	23.7	3
0	29319	23.7	2
0	29320	23.7	3
0	29321	23.7	2
0	29322	23.7	3
0	29323	23.7	2
0	29387	23.75	3
0	29388	23.75	2
0	29389	23.75	3
0	29390	23.75	2
0	29467	23.8	3
0	29468	23.8	2
0	29469	23.8	3
0	29470	23.8	2
0	29471	23.8	3
0	29472	23.8	2
0	29473	23.8	3
0	29474	23.8	2
0	29538	23.85	3
0	29539	23.85	2
0	29540	23.85	3
0	29541	23.85	2
0	29597	23.9	3
0	29598	23.9	2
0	29599	23.9	3
0	29600	23.9	2
0	29601	23.9	3
0	29602	23.9	2
0	29603	23.9	3
0	29604	23.9	2
0	29667	23.95	3
0	29668	23.95	2
0	29669	23.95	3
0	29670	23.95	2
0	29703	24	3
0	29704	24	2
0	29705	24	3
0	29706	24	2
0	29707	24	3
0	29708	24	2
0	29709	24	3
0	29710	24	2
0	29751	24.05	3
0	29752	24.05	2
0	29753	24.05	3
0	29754	24.05	2
0	29796	24.1	3
0	29797	24.1	2
0	29798	24.1	3
0	29799	24.1	2
0	29800	24.1	3
0	29801	24.1	2
0	29802	24.1	3
0	29803	24.1	2
0	29849	24.15	3
0	29850	24.15	2
0	29851	24.15	3
0	29852	24.15	2
0	29885	24.2	3
0	29886	24.2	2
0	29887	24.2	3
0	29888	24.2	2
0	29889	24.2	3
0	29890	24.2	2
0	29891	24.2	3
0	29892	24.2	2
0	30002	24.25	3
0	30003	24.25	2
0	30004	24.25	3
0	30005	24.25	2
0	30082	24.3	3
0	30083	24.3	2
0	30084	24.3	3
0	30085	24.3	2
0	30086	24.3	3
0	30087	24.3	2
0	30088	24.3	3
0	30089	24.3	2
0	30130	24.35	3
0	30131	24.35	2
0	30132	24.35	3
0	30133	24.35	2
0	30210	24.4	3
0	30211	24.4	2
0	30212	24.4	3
0	30213	24.4	2
0	30214	24.4	3
0	30215	24.4	2
0	30216	24.4	3
0	30217	24.4	2
0	30263	24.45	3
0	30264	24.45	2
0	30265	24.45	3
0	30266	24.45	2
0	30299	24.5	3
0	30300	24.5	2
0	30301	24.5	3
0	30302	24.5	2
0	30303	24.5	3
0	30304	24.5	2
0	30305	24.5	3
0	30306	24.5	2
0	30347	24.55	3
0	30348	24.55	2
0	30349	24.55	3
0	30350	24.55	2
0	30383	24.6	3
0	30384	24.6	2
0	30385	24.6	3
0	30386	24.6	2
0	30387	24.6	3
0	30388	24.6	2
0	30389	24.6	3
0	30390	24.6	2
0	30431	24.65	3
0	30432	24.65	2
0	30433	24.65	3
0	30434	24.65	2
0	30467	24.7	3
0	30468	24.7	2
0	30469	24.7	3
0	30470	24.7	2
0	30471	24.7	3
0	30472	24.7	2
0	30473	24.7	3
0	30474	24.7	2
0	30515	24.75	3
0	30516	24.75	2
0	30517	24.75	3
0	30518	24.75	2
0	30620	24.8	3
0	30621	24.8	2
0	30622	24.8	3
0	30623	24.8	2
0	30624	24.8	3
0	30625	24.8	2
0	30626	24.8	3
0	30627	24.8	2
0	30668	24.85	3
0	30669	24.85	2
0	30670	24.85	3
0	30671	24.85	2
0	30704	24.9	3
0	30705	24.9	2
0	30706	24.9	3
0	30707	24.9	2
0	30708	24.9	3
0	30709	24.9	2
0	30710	24.9	3
0	30711	24.9	2
0	30775	24.95	3
0	30776	24.95	2
0	30777	24.95	3
0	30778	24.95	2
0	30811	25	3
0	30812	25	2
0	30813	25	3
0	30814	25	2
0	30815	25	3
0	30816	25	2
0	30817	25	3
0	30818	25	2
0	30859	25.05	3
0	30860	25.05	2
0	30861	25.05	3
0	30862	25.05	2
0	30899	25.1	3
0	30900	25.1	2
0	30901	25.1	3
0	30902	25.1	2
0	30903	25.1	3
0	30904	25.1	2
0	30905	25.1	3
0	30906	25.1	2
0	30952	25.15	3
0	30953	25.15	2
0	30954	25.15	3
0	30955	25.15	2
0	30988	25.2	3
0	30989	25.2	2
0	30990	25.2	3
0	30991	25.2	2
0	30992	25.2	3
0	30993	25.2	2
0	30994	25.2	3
0	30995	25.2	2
0	31036	25.25	3
0	31037	25.25	2
0	31038	25.25	3
0	31039	25.25	2
0	31072	25.3	3
0	31073	25.3	2
0	31074	25.3	3
0	31075	25.3	2
0	31076	25.3	3
0	31077	25.3	2
0	31078	25.3	3
0	31079	25.3	2
0	31189	25.35	3
0	31190	25.35	2
0	31191	25.35	3
0	31192	25.35	2
0	31282	25.4	3
0	31283	25.4	2
0	31284	25.4	3
0	31285	25.4	2
0	31286	25.4	3
0	31287	25.4	2
0	31288	25.4	3
0	31289	25.4	2
0	31338	25.45	3
0	31339	25.45	2
0	31340	25.45	3
0	31341	25.45	2
0	31418	25.5	3
0	31419	25.5	2
0	31420	25.5	3
0	31421	25.5	2
0	31422	25.5	3
0	31423	25.5	2
0	31424	25.5	3
0	31425	25.5	2
0	31494	25.55	3
0	31495	25.55	2
0	31496	25.55	3
0	31497	25.55	2
0	31530	25.6	3
0	31531	25.6	2
0	31532	25.6	3
0	31533	25.6	2
0	31534	25.6	3
0	31535	25.6	2
0	31536	25.6	3
0	31537	25.6	2
0	31578	25.65	3
0	31579	25.65	2
0	31580	25.65	3
0	31581	25.65	2
0	31631	25.7	3
0	31632	25.7	2
0	31633	25.7	3
0	31634	25.7	2
0	31635	25.7	3
0	31636	25.7	2
0	31637	25.7	3
0	31638	25.7	2
0	31679	25.75	3
0	31680	25.75	2
0	31681	25.75	3
0	31682	25.75	2
0	31715	25.8	3
0	31716	25.8	2
0	31717	25.8	3
0	31718	25.8	2
0	31719	25.8	3
0	31720	25.8	2
0	31721	25.8	3
0	31722	25.8	2
0	31763	25.85	3
0	31764	25.85	2
0	31765	25.85	3
0	31766	25.85	2
0	31912	25.9	3
0	31913	25.9	2
0	31914	25.9	3
0	31915	25.9	2
0	31916	25.9	3
0	31917	25.9	2
0	31918	25.9	3
0	31919	25.9	2
0	31965	25.95	3
0	31966	25.95	2
0	31967	25.95	3
0	31968	25.95	2
0	32004	26	3
0	32005	26	2
0	32006	26	3
0	32007	26	2
0	32008	26	3
0	32009	26	2
0	32010	26	3
0	32011	26	2
0	32098	26.05	3
0	32099	26.05	2
0	32100	26.05	3
0	32101	26.05	2
0	32143	26.1	3
0	32144	26.1	2
0	32145	26.1	3
0	32146	26.1	2
0	32147	26.1	3
0	32148	26.1	2
0	32149	26.1	3
0	32150	26.1	2
0	32196	26.15	3
0	32197	26.15	2
0	32198	26.15	3
0	32199	26.15	2
0	32232	26.2	3
0	32233	26.2	2
0	32234	26.2	3
0	32235	26.2	2
0	32236	26.2	3
0	32237	26.2	2
0	32238	26.2	3
0	32239	26.2	2
0	32280	26.25	3
0	32281	26.25	2
0	32282	26.25	3
0	32283	26.25	2
0	32316	26.3	3
0	32317	26.3	2
0	32318	26.3	3
0	32319	26.3	2
0	32320	26.3	3
0	32321	26.3	2
0	32322	26.3	3
0	32323	26.3	2
0	32364	26.35	3
0	32365	26.35	2
0	32366	26.35	3
0	32367	26.35	2
0	32400	26.4	3
0	32401	26.4	2
0	32402	26.4	3
0	32403	26.4	2
0	32404	26.4	3
0	32405	26.4	2
0	32406	26.4	3
0	32407	26.4	2
0	32561	26.45	3
0	32562	26.45	2
0	32563	26.45	3
0	32564	26.45	2
0	32597	26.5	3
0	32598	26.5	2
0	32599	26.5	3
0	32600	26.5	2
0	32601	26.5	3
0	32602	26.5	2
0	32603	26.5	3
0	32604	26.5	2
0	32645	26.55	3
0	32646	26.55	2
0	32647	26.55	3
0	32648	26.55	2
0	32748	26.6	3
0	32749	26.6	2
0	32750	26.6	3
0	32751	26.6	2
0	32752	26.6	3
0	32753	26.6	2
0	32754	26.6	3
0	32755	26.6	2
0	32796	26.65	3
0	32797	26.65	2
0	32798	26.65	3
0	32799	26.65	2
0	32832	26.7	3
0	32833	26.7	2
0	32834	26.7	3
0	32835	26.7	2
0	32836	26.7	3
0	32837	26.7	2
0	32838	26.7	3
0	32839	26.7	2
0	32880	26.75	3
0	32881	26.75	2
0	32882	26.75	3
0	32883	26.75	2
0	32916	26.8	3
0	32917	26.8	2
0	32918	26.8	3
0	32919	26.8	2
0	32920	26.8	3
0	32921	26.8	2
0	32922	26.8	3
0	32923	26.8	2
0	32964	26.85	3
0	32965	26.85	2
0	32966	26.85	3
0	32967	26.85	2
0	33000	26.9	3
0	33001	26.9	2
0	33002	26.9	3
0	33003	26.9	2
0	33004	26.9	3
0	33005	26.9	2
0	33006	26.9	3
0	33007	26.9	2
0	33048	26.95	3
0	33049	26.95	2
0	33050	26.95	3
0	33051	26.95	2
0	33177	27	3
0	33178	27	2
0	33179	27	3
0	33180	27	2
0	33181	27	3
0	33182	27	2
0	33183	27	3
0	33184	27	2
0	33225	27.05	3
0	33226	27.05	2
0	33227	27.05	3
0	33228	27.05	2
0	33265	27.1	3
0	33266	27.1	2
0	33267	27.1	3
0	33268	27.1	2
0	33269	27.1	3
0	33270	27.1	2
0	33271	27.1	3
0	33272	27.1	2
0	33400	27.15	3
0	33401	27.15	2
0	33402	27.15	3
0	33403	27.15	2
0	33444	27.2	3
0	33445	27.2	2
0	33446	27.2	3
0	33447	27.2	2
0	33448	27.2	3
0	33449	27.2	2
0	33450	27.2	3
0	33451	27.2	2
0	33492	27.25	3
0	33493	27.25	2
0	33494	27.25	3
0	33495	27.25	2
0	33590	27.3	3
0	33591	27.3	2
0	33592	27.3	3
0	33593	27.3	2
0	33594	27.3	3
0	33595	27.3	2
0	33596	27.3	3
0	33597	27.3	2
0	33646	27.35	3
0	33647	27.35	2
0	33648	27.35	3
0	33649	27.35	2
0	33682	27.4	3
0	33683	27.4	2
0	33684	27.4	3
0	33685	27.4	2
0	33686	27.4	3
0	33687	27.4	2
0	33688	27.4	3
0	33689	27.4	2
0	33730	27.45	3
0	33731	27.45	2
0	33732	27.45	3
0	33733	27.45	2
0	33766	27.5	3
0	33767	27.5	2
0	33768	27.5	3
0	33769	27.5	2
0	33770	27.5	3
0	33771	27.5	2
0	33772	27.5	3
0	33773	27.5	2
0	33922	27.55	3
0	33923	27.55	2
0	33924	27.55	3
0	33925	27.55	2
0	33958	27.6	3
0	33959	27.6	2
0	33960	27.6	3
0	33961	27.6	2
0	33962	27.6	3
0	33963	27.6	2
0	33964	27.6	3
0	33965	27.6	2
0	34006	27.65	3
0	34007	27.65	2
0	34008	27.65	3
0	34009	27.65	2
0	34128	27.7	3
0	34129	27.7	2
0	34130	27.7	3
0	34131	27.7	2
0	34132	27.7	3
0	34133	27.7	2
0	34134	27.7	3
0	34135	27.7	2
0	34176	27.75	3
0	34177	27.75	2
0	34178	27.75	3
0	34179	27.75	2
0	34212	27.8	3
0	34213	27.8	2
0	34214	27.8	3
0	34215	27.8	2
0	34216	27.8	3
0	34217	27.8	2
0	34218	27.8	3
0	34219	27.8	2
0	34282	27.85	3
0	34283	27.85	2
0	34284	27.85	3
0	34285	27.85	2
0	34318	27.9	3
0	34319	27.9	2
0	34320	27.9	3
0	34321	27.9	2
0	34322	27.9	3
0	34323	27.9	2
0	34324	27.9	3
0	34325	27.9	2
0	34366	27.95	3
0	34367	27.95	2
0	34368	27.95	3
0	34369	27.95	2
0	34402	28	3
0	34403	28	2
0	34404	28	3
0	34405	28	2
0	34406	28	3
0	34407	28	2
0	34408	28	3
0	34409	28	2
0	34450	28.05	3
0	34451	28.05	2
0	34452	28.05	3
0	34453	28.05	2
0	34603	28.1	3
0	34604	28.1	2
0	34605	28.1	3
0	34606	28.1	2
0	34607	28.1	3
0	34608	28.1	2
0	34609	28.1	3
0	34610	28.1	2
0	34656	28.15	3
0	34657	28.15	2
0	34658	28.15	3
0	34659	28.15	2
0	34692	28.2	3
0	34693	28.2	2
0	34694	28.2	3
0	34695	28.2	2
0	34696	28.2	3
0	34697	28.2	2
0	34698	28.2	3
0	34699	28.2	2
0	34822	28.25	3
0	34823	28.25	2
0	34824	28.25	3
0	34825	28.25	2
0	34866	28.3	3
0	34867	28.3	2
0	34868	28.3	3
0	34869	28.3	2
0	34870	28.3	3
0	34871	28.3	2
0	34872	28.3	3
0	34873	28.3	2
0	34914	28.35	3
0	34915	28.35	2
0	34916	28.35	3
0	34917	28.35	2
0	34994	28.4	3
0	34995	28.4	2
0	34996	28.4	3
0	34997	28.4	2
0	34998	28.4	3
0	34999	28.4	2
0	35000	28.4	3
0	35001	28.4	2
0	35042	28.45	3
0	35043	28.45	2
0	35044	28.45	3
0	35045	28.45	2
0	35078	28.5	3
0	35079	28.5	2
0	35080	28.5	3
0	35081	28.5	2
0	35082	28.5	3
0	35083	28.5	2
0	35084	28.5	3
0	35085	28.5	2
0	35126	28.55	3
0	35127	28.55	2
0	35128	28.55	3
0	35129	28.55	2
0	35162	28.6	3
0	35163	28.6	2
0	35164	28.6	3
0	35165	28.6	2
0	35166	28.6	3
0	35167	28.6	2
0	35168	28.6	3
0	35169	28.6	2
0	35323	28.65	3
0	35324	28.65	2
0	35325	28.65	3
0	35326	28.65	2
0	35359	28.7	3
0	35360	28.7	2
0	35361	28.7	3
0	35362	28.7	2
0	35363	28.7	3
0	35364	28.7	2
0	35365	28.7	3
0	35366	28.7	2
0	35407	28.75	3
0	35408	28.75	2
0	35409	28.75	3
0	35410	28.75	2
0	35512	28.8	3
0	35513	28.8	2
0	35514	28.8	3
0	35515	28.8	2
0	35516	28.8	3
0	35517	28.8	2
0	35518	28.8	3
0	35519	28.8	2
0	35560	28.85	3
0	35561	28.85	2
0	35562	28.85	3
0	35563	28.85	2
0	35596	28.9	3
0	35597	28.9	2
0	35598	28.9	3
0	35599	28.9	2
0	35600	28.9	3
0	35601	28.9	2
0	35602	28.9	3
0	35603	28.9	2
0	35667	28.95	3
0	35668	28.95	2
0	35669	28.95	3
0	35670	28.95	2
0	35703	29	3
0	35704	29	2
0	35705	29	3
0	35706	29	2
0	35707	29	3
0	35708	29	2
0	35709	29	3
0	35710	29	2
0	35751	29.05	3
0	35752	29.05	2
0	35753	29.05	3
0	35754	29.05	2
0	35791	29.1	3
0	35792	29.1	2
0	35793	29.1	3
0	35794	29.1	2
0	35795	29.1	3
0	35796	29.1	2
0	35797	29.1	3
0	35798	29.1	2
0	35844	29.15	3
0	35845	29.15	2
0	35846	29.15	3
0	35847	29.15	2
0	35993	29.2	3
0	35994	29.2	2
0	35995	29.2	3
0	35996	29.2	2
0	35997	29.2	3
0	35998	29.2	2
0	35999	29.2	3
0	36000	29.2	2
0	36041	29.25	3
0	36042	29.25	2
0	36043	29.25	3
0	36044	29.25	2
0	36082	29.3	3
0	36083	29.3	2
0	36084	29.3	3
0	36085	29.3	2
0	36086	29.3	3
0	36087	29.3	2
0	36088	29.3	3
0	36089	29.3	2
0	36194	29.35	3
0	36195	29.35	2
0	36196	29.35	3
0	36197	29.35	2
0	36238	29.4	3
0	36239	29.4	2
0	36240	29.4	3
0	36241	29.4	2
0	36242	29.4	3
0	36243	29.4	2
0	36244	29.4	3
0	36245	29.4	2
0	36309	29.45	3
0	36310	29.45	2
0	36311	29.45	3
0	36312	29.45	2
0	36362	29.5	3
0	36363	29.5	2
0	36364	29.5	3
0	36365	29.5	2
0	36366	29.5	3
0	36367	29.5	2
0	36368	29.5	3
0	36369	29.5	2
0	36410	29.55	3
0	36411	29.55	2
0	36412	29.55	3
0	36413	29.55	2
0	36446	29.6	3
0	36447	29.6	2
0	36448	29.6	3
0	36449	29.6	2
0	36450	29.6	3
0	36451	29.6	2
0	36452	29.6	3
0	36453	29.6	2
0	36494	29.65	3
0	36495	29.65	2
0	36496	29.65	3
0	36497	29.65	2
0	36530	29.7	3
0	36531	29.7	2
0	36532	29.7	3
0	36533	29.7	2
0	36534	29.7	3
0	36535	29.7	2
0	36536	29.7	3
0	36537	29.7	2
0	36647	29.75	3
0	36648	29.75	2
0	36649	29.75	3
0	36650	29.75	2
0	36683	29.8	3
0	36684	29.8	2
0	36685	29.8	3
0	36686	29.8	2
0	36687	29.8	3
0	36688	29.8	2
0	36689	29.8	3
0	36690	29.8	2
0	36736	29.85	3
0	36737	29.85	2
0	36738	29.85	3
0	36739	29.85	2
0	36818	29.9	3
0	36819	29.9	2
0	36820	29.9	3
0	36821	29.9	2
0	36822	29.9	3
0	36823	29.9	2
0	36824	29.9	3
0	36825	29.9	2
0	36866	29.95	3
0	36867	29.95	2
0	36868	29.95	3
0	36869	29.95	2
0	36902	30	3
0	36903	30	2
0	36904	30	3
0	36905	30	2
0	36906	30	3
0	36907	30	2
0	36908	30	3
0	36909	30	2
0	36955	30.05	3
0	36956	30.05	2
0	36957	30.05	3
0	36958	30.05	2
0	36995	30.1	3
0	36996	30.1	2
0	36997	30.1	3
0	36998	30.1	2
0	36999	30.1	3
0	37000	30.1	2
0	37001	30.1	3
0	37002	30.1	2
0	37048	30.15	3
0	37049	30.15	2
0	37050	30.15	3
0	37051	30.15	2
0	37084	30.2	3
0	37085	30.2	2
0	37086	30.2	3
0	37087	30.2	2
0	37088	30.2	3
0	37089	30.2	2
0	37090	30.2	3
0	37091	30.2	2
0	37132	30.25	3
0	37133	30.25	2
0	37134	30.25	3
0	37135	30.25	2
0	37237	30.3	3
0	37238	30.3	2
0	37239	30.3	3
0	37240	30.3	2
0	37241	30.3	3
0	37242	30.3	2
0	37243	30.3	3
0	37244	30.3	2
0	37285	30.35	3
0	37286	30.35	2
0	37287	30.35	3
0	37288	30.35	2
0	37321	30.4	3
0	37322	30.4	2
0	37323	30.4	3
0	37324	30.4	2
0	37325	30.4	3
0	37326	30.4	2
0	37327	30.4	3
0	37328	30.4	2
0	37413	30.45	3
0	37414	30.45	2
0	37415	30.45	3
0	37416	30.45	2
0	37449	30.5	3
0	37450	30.5	2
0	37451	30.5	3
0	37452	30.5	2
0	37453	30.5	3
0	37454	30.5	2
0	37455	30.5	3
0	37456	30.5	2
0	37497	30.55	3
0	37498	30.55	2
0	37499	30.55	3
0	37500	30.55	2
0	37533	30.6	3
0	37534	30.6	2
0	37535	30.6	3
0	37536	30.6	2
0	37537	30.6	3
0	37538	30.6	2
0	37539	30.6	3
0	37540	30.6	2
0	37581	30.65	3
0	37582	30.65	2
0	37583	30.65	3
0	37584	30.65	2
0	37617	30.7	3
0	37618	30.7	2
0	37619	30.7	3
0	37620	30.7	2
0	37621	30.7	3
0	37622	30.7	2
0	37623	30.7	3
0	37624	30.7	2
0	37665	30.75	3
0	37666	30.75	2
0	37667	30.75	3
0	37668	30.75	2
0	37745	30.8	3
0	37746	30.8	2
0	37747	30.8	3
0	37748	30.8	2
0	37749	30.8	3
0	37750	30.8	2
0	37751	30.8	3
0	37752	30.8	2
0	37862	30.85	3
0	37863	30.85	2
0	37864	30.85	3
0	37865	30.85	2
0	37898	30.9	3
0	37899	30.9	2
0	37900	30.9	3
0	37901	30.9	2
0	37902	30.9	3
0	37903	30.9	2
0	37904	30.9	3
0	37905	30.9	2
0	37969	30.95	3
0	37970	30.95	2
0	37971	30.95	3
0	37972	30.95	2
0	38031	31	3
0	38032	31	2
0	38033	31	3
0	38034	31	2
0	38035	31	3
0	38036	31	2
0	38037	31	3
0	38038	31	2
0	38102	31.05	3
0	38103	31.05	2
0	38104	31.05	3
0	38105	31.05	2
0	38142	31.1	3
0	38143	31.1	2
0	38144	31.1	3
0	38145	31.1	2
0	38146	31.1	3
0	38147	31.1	2
0	38148	31.1	3
0	38149	31.1	2
0	38195	31.15	3
0	38196	31.15	2
0	38197	31.15	3
0	38198	31.15	2
0	38236	31.2	3
0	38237	31.2	2
0	38238	31.2	3
0	38239	31.2	2
0	38240	31.2	3
0	38241	31.2	2
0	38242	31.2	3
0	38243	31.2	2
0	38284	31.25	3
0	38285	31.25	2
0	38286	31.25	3
0	38287	31.25	2
0	38320	31.3	3
0	38321	31.3	2
0	38322	31.3	3
0	38323	31.3	2
0	38324	31.3	3
0	38325	31.3	2
0	38326	31.3	3
0	38327	31.3	2
0	38412	31.35	3
0	38413	31.35	2
0	38414	31.35	3
0	38415	31.35	2
0	38517	31.4	3
0	38518	31.4	2
0	38519	31.4	3
0	38520	31.4	2
0	38521	31.4	3
0	38522	31.4	2
0	38523	31.4	3
0	38524	31.4	2
0	38565	31.45	3
0	38566	31.45	2
0	38567	31.45	3
0	38568	31.45	2
1	49	0.1	-nan
1	51	0.1	-nan
1	53	0.1	-nan
1	55	0.1	-nan
1	937	1.1	-nan
1	938	1.1	-nan
1	939	1.1	-nan
1	940	1.1	-nan
1	2193	2.1	-nan
1	2194	2.1	-nan
1	2195	2.1	-nan
1	2196	2.1	-nan
1	3443	3.1	-nan
1	3444	3.1	-nan
1	3445	3.1	-nan
1	3446	3.1	-nan
1	4687	4.1	-nan
1	4688	4.1	-nan
1	4689	4.1	-nan
1	4690	4.1	-nan
1	5929	5.1	-nan
1	5930	5.1	-nan
1	5931	5.1	-nan
1	5932	5.1	-nan
1	7146	6.1	-nan
1	7147	6.1	-nan
1	7148	6.1	-nan
1	7149	6.1	-nan
1	8232	7.1	-nan
1	8233	7.1	-nan
1	8234	7.1	-nan
1	8235	7.1	-nan
1	9438	8.1	-nan
1	9439	8.1	-nan
1	9440	8.1	-nan
1	9441	8.1	-nan
1	10611	9.1	-nan
1	10612	9.1	-nan
1	10613	9.1	-nan
1	10614	9.1	-nan
1	11845	10.1	-nan
1	11846	10.1	-nan
1	11847	10.1	-nan
1	11848	10.1	-nan
1	13402	11.1	-nan
1	13403	11.1	-nan
1	13404	11.1	-nan
1	13405	11.1	-nan
1	14854	12.1	-nan
1	14855	12.1	-nan
1	14856	12.1	-nan
1	14857	12.1	-nan
1	16135	13.1	-nan
1	16136	13.1	-nan
1	16137	13.1	-nan
1	16138	13.1	-nan
1	17437	14.1	-nan
1	17438	14.1	-nan
1	17439	14.1	-nan
1	17440	14.1	-nan
1	18666	15.1	-nan
1	18667	15.1	-nan
1	18668	15.1	-nan
1	18669	15.1	-nan
1	19715	16.1	-nan
1	19716	16.1	-nan
1	19717	16.1	-nan
1	19718	16.1	-nan
1	21007	17.1	-nan
1	21008	17.1	-nan
1	21009	17.1	-nan
1	21010	17.1	-nan
1	22221	18.1	-nan
1	22222	18.1	-nan
1	22223	18.1	-nan
1	22224	18.1	-nan
1	23523	19.1	-nan
1	23524	19.1	-nan
1	23525	19.1	-nan
1	23526	19.1	-nan
1	24847	20.1	-nan
1	24848	20.1	-nan
1	24849	20.1	-nan
1	24850	20.1	-nan
1	26101	21.1	-nan
1	26102	21.1	-nan
1	26103	21.1	-nan
1	26104	21.1	-nan
1	27380	22.1	-nan
1	27381	22.1	-nan
1	27382	22.1	-nan
1	27383	22.1	-nan
1	28455	23.1	-nan
1	28456	23.1	-nan
1	28457	23.1	-nan
1	28458	23.1	-nan
1	29792	24.1	-nan
1	29793	24.1	-nan
1	29794	24.1	-nan
1	29795	24.1	-nan
1	30895	25.1	-nan
1	30896	25.1	-nan
1	30897	25.1	-nan
1	30898	25.1	-nan
1	32139	26.1	-nan
1	32140	26.1	-nan
1	32141	26.1	-nan
1	32142	26.1	-nan
1	33261	27.1	-nan
1	33262	27.1	-nan
1	33263	27.1	-nan
1	33264	27.1	-nan
1	34599	28.1	-nan
1	34600	28.1	-nan
1	34601	28.1	-nan
1	34602	28.1	-nan
1	35787	29.1	-nan
1	35788	29.1	-nan
1	35789	29.1	-nan
1	35790	29.1	-nan
1	36991	30.1	-nan
1	36992	30.1	-nan
1	36993	30.1	-nan
1	36994	30.1	-nan
1	38138	31.1	-nan
1	38139	31.1	-nan
1	38140	31.1	-nan
1	38141	31.1	-nan
2	11815	10.083481326346	141
2	11833	10.097321326346	282
2	11909	10.111161326346	423
2	11970	10.125001326346	564
2	11988	10.133661383394	705
2	12001	10.138841326346	846
2	12019	10.147501383394	987
2	12073	10.152681326346	1128
2	12091	10.161341383394	1269
2	12109	10.166521326346	1410
2	12127	10.175181383394	1551
2	12145	10.180361326346	1692
2	12163	10.189021383394	1833
2	12181	10.194201326346	1974
2	12250	10.208041326346	2115
2	12268	10.216701383394	2256
2	12286	10.230541383394	2397
2	12304	10.244381383394	2538
2	12353	10.258221383394	2679
2	12371	10.272061383394	2820
2	12811	10.633481326346	2961
2	12894	10.683661383394	3102
2	12912	10.697501383394	3243
2	12980	10.711341383394	3384
2	13512	11.133626728067	3525
2	13531	11.147466728067	3666
2	13588	11.161306728067	3807
2	13628	11.183481326346	3948
2	13647	11.188986728067	4089
2	13716	11.202826728067	4230
2	13742	11.216666728067	4371
2	13772	11.230506728067	4512
2	13791	11.233661383394	4653
2	13810	11.244346728067	4794
2	13865	11.258186728067	4935
2	13884	11.272026728067	5076
2	13903	11.285866728067	5217
2	14402	11.683626728067	5358
2	14421	11.697466728067	5499
2	14485	11.711306728067	5640
2	15119	12.233626728067	5781
2	15138	12.247466728067	5922
2	15218	12.283481326346	6063
2	15954	12.883661383394	6204
2	16506	13.333626728067	6345
2	16586	13.383481326346	6486
2	16678	13.433661383394	6627
2	17945	14.483481326346	6768
2	18541	14.983626728067	6909
2	19210	15.583481326346	7050
2	19803	16.133481326346	7191
2	20313	16.583626728067	7332
2	20332	16.597466728067	7473
2	20482	16.688221309947	7614
2	20551	16.702061309947	7755
2	20574	16.715901309947	7896
2	21097	17.133626728067	8037
2	21116	17.147466728067	8178
2	21269	17.233481326346	8319
2	21288	17.238221309947	8460
2	22485	18.233626728067	8601
2	22638	18.333481326346	8742
2	22657	18.338221309947	8883
2	23894	19.333626728067	9024
2	24047	19.433481326346	9165
2	24733	19.988221309947	9306
2	25273	20.433626728067	9447
2	25426	20.533481326346	9588
2	25445	20.538221309947	9729
2	26680	21.533626728067	9870
2	26833	21.633481326346	10011
2	26852	21.638221309947	10152
2	27504	22.183481326346	10293
2	28024	22.633626728067	10434
2	28648	23.183626728067	10575
2	28742	23.233661383394	10716
2	28756	23.247501383394	10857
2	28836	23.283481326346	10998
2	29454	23.783661383394	11139
2	30069	24.283626728067	11280
2	30197	24.383481326346	11421
2	31258	25.383661383394	11562
2	31277	25.397501383394	11703
2	31405	25.483481326346	11844
2	31899	25.883626728067	11985
2	32548	26.433626728067	12126
2	32735	26.583481326346	12267
2	33395	27.148191794197	12408
2	33566	27.283661383394	12549
2	33585	27.297501383394	12690
2	33914	27.533626728067	12831
2	34586	28.083626728067	12972
2	34817	28.248191794197	13113
2	34981	28.383661383394	13254
2	35310	28.633626728067	13395
2	35980	29.183626728067	13536
2	36189	29.348191794197	13677
2	37400	30.433481326346	13818
2	37732	30.783626728067	13959
2	38399	31.333626728067	14100
3	11815	10.083481326346	141
3	11833	10.097321326346	282
3	11909	10.111161326346	423
3	11970	10.125001326346	564
3	11988	10.133661383394	705
3	12001	10.138841326346	846
3	12019	10.147501383394	987
3	12073	10.152681326346	1128
3	12091	10.161341383394	1269
3	12109	10.166521326346	1410
3	12127	10.175181383394	1551
3	12145	10.180361326346	1692
3	12163	10.189021383394	1833
3	12181	10.194201326346	1974
3	12250	10.208041326346	2115
3	12268	10.216701383394	2256
3	12286	10.230541383394	2397
3	12304	10.244381383394	2538
3	12353	10.258221383394	2679
3	12371	10.272061383394	2820
3	12811	10.633481326346	2961
3	12894	10.683661383394	3102
3	12912	10.697501383394	3243
3	12980	10.711341383394	3384
3	13512	11.133626728067	3525
3	13531	11.147466728067	3666
3	13588	11.161306728067	3807
3	13628	11.183481326346	3948
3	13647	11.188986728067	4089
3	13716	11.202826728067	4230
3	13742	11.216666728067	4371
3	13772	11.230506728067	4512
3	13791	11.233661383394	4653
3	13810	11.244346728067	4794
3	13865	11.258186728067	4935
3	13884	11.272026728067	5076
3	13903	11.285866728067	5217
3	14402	11.683626728067	5358
3	14421	11.697466728067	5499
3	14485	11.711306728067	5640
3	15119	12.233626728067	5781
3	15138	12.247466728067	5922
3	15218	12.283481326346	6063
3	15954	12.883661383394	6204
3	16506	13.333626728067	6345
3	16586	13.383481326346	6486
3	16678	13.433661383394	6627
3	17945	14.483481326346	6768
3	18541	14.983626728067	6909
3	19210	15.583481326346	7050
3	19803	16.133481326346	7191
3	20313	16.583626728067	7332
3	20332	16.597466728067	7473
3	20482	16.688221309947	7614
3	20551	16.702061309947	7755
3	20574	16.715901309947	7896
3	21097	17.133626728067	8037
3	21116	17.147466728067	8178
3	21269	17.233481326346	8319
3	21288	17.238221309947	8460
3	22485	18.233626728067	8601
3	22638	18.333481326346	8742
3	22657	18.338221309947	8883
3	23894	19.333626728067	9024
3	24047	19.433481326346	9165
3	24733	19.988221309947	9306
3	25273	20.433626728067	9447
3	25426	20.533481326346	9588
3	25445	20.538221309947	9729
3	26680	21.533626728067	9870
3	26833	21.633481326346	10011
3	26852	21.638221309947	10152
3	27504	22.183481326346	10293
3	28024	22.633626728067	10434
3	28648	23.183626728067	10575
3	28742	23.233661383394	10716
3	28756	23.247501383394	10857
3	28836	23.283481326346	10998
3	29454	23.783661383394	11139
3	30069	24.283626728067	11280
3	30197	24.383481326346	11421
3	31258	25.383661383394	11562
3	31277	25.397501383394	11703
3	31405	25.483481326346	11844
3	31899	25.883626728067	11985
3	32548	26.433626728067	12126
3	32735	26.583481326346	12267
3	33395	27.148191794197	12408
3	33566	27.283661383394	12549
3	33585	27.297501383394	12690
3	33914	27.533626728067	12831
3	34586	28.083626728067	12972
3	34817	28.248191794197	13113
3	34981	28.383661383394	13254
3	35310	28.633626728067	13395
3	35980	29.183626728067	13536
3	36189	29.348191794197	13677
3	37400	30.433481326346	13818
3	37732	30.783626728067	13959
3	38399	31.333626728067	14100

