version 2
run Tester-0-20190915-23:52:25-8988
attr configname Tester
attr datetime 20190915-23:52:25
attr experiment Tester
attr inifile SimV2.ini
attr iterationvars ""
attr iterationvarsf ""
attr measurement ""
attr network NetworkTormV2
attr processid 8988
attr repetition 0
attr replication #0
attr resultdir results
attr runnumber 0
attr seedset 0
param **.mobility.traceFile "\"paths/A.movements\""
param **.numNodes 3
param **.wirelessIfc.wirelessRange 40m
param **.bluetoothIfc.wirelessRange 40m
param **.application.dataGenerationInterval 1s
param **.application.dataSizeInBytes 10
param **.application.ttl 999999s
param **application.destinationAddr "\"Wf:00:00:00:00:02\""
param **application.destinationBTAddr "\"Bt:00:00:00:00:02\""
param **application.nodesThatGen true
param **application.nodesGenMsg "\"0,1,3\""
param **application.startMultipleMsg false
param **application.numMultipleMsg 100
param **application.hopsListSize 50
param **.application.endGeneratingMsg 5s
param **.numNodes 2
param **.application.usedRNG 1
param **.application.dataGenerationInterval 1ms
param **.application.dataSizeInBytes 10
param **.application.ttl 999999s
param **application.destinationAddr "\"Wf:00:00:00:00:02\""
param **application.destinationBTAddr "\"Bt:00:00:00:00:02\""
param **application.nodesThatGen true
param **application.nodesGenMsg "\"0\""
param **application.startMultipleMsg true
param **application.numMultipleMsg 100
param **application.hopsListSize 50
param **.application.endGeneratingMsg 999999s
param **.routingLayer "\"RoutingLayer\""
param **.routing.maximumCacheSize 5000byte
param **.routing.maximumHopCount 25
param **.routing.useTTL false
param **.routing.waitBFsend 0.5
param **.routing.max_age 999999s
param **.neighboring.antiEntropyInterval 500ms
param **.neighboring.maximumRandomBackoffDuration 1s
param **.neighboring.delayPerDataMsg 0.1
param **neighboring.usedRNG 2
param **.neighboring.GWAddr "\"02:00:00:00:00:09\""
param **.neighboring.sendWifiFirst true
param **.neighboring.maxLengthGraph 20
param **.neighboring.max_age 999999s
param **.wirelessIfc.wirelessRange 15m
param **.wirelessIfc.neighbourScanInterval 50ms
param **.wirelessIfc.bandwidthBitRate 100000bps
param **.wirelessIfc.wirelessHeaderSize 32byte
param **.wirelessIfc.minSSI -90
param **.bluetoothIfc.wirelessRange 15m
param **.bluetoothIfc.neighbourScanInterval 100ms
param **.bluetoothIfc.bandwidthBitRate 100000bps
param **.bluetoothIfc.wirelessHeaderSize 16byte
param **.bluetoothIfc.minSSI -90
param **.mobilityType "\"BonnMotionMobility\""
param **.mobility.traceFile "\"paths/Moves2.movements\""
param **.mobility.is3D false
param **.mobility.nodeId -1

vector 0 NetworkTormV2 neighbourhoodSize:vector ETV
attr source neighbourhoodSize
vector 1 NetworkTormV2 deliveryRatio:vector ETV
attr source sum(totalDataBytesReceived)/sum(totalDataBytesReceivableByAllNodes)
vector 2 NetworkTormV2 dataBytesReceivedSum:vector ETV
attr source sum(dataBytesReceived)
vector 3 NetworkTormV2 totalBytesReceivedSum:vector ETV
attr source sum(totalBytesReceived)
0	10	0.05	1
0	11	0.05	2
0	12	0.05	1
0	20	0.1	1
0	22	0.1	2
0	23	0.1	1
0	24	0.1	1
0	25	0.1	2
0	26	0.1	1
0	41	0.15	1
0	42	0.15	2
0	43	0.15	1
0	50	0.2	1
0	51	0.2	2
0	52	0.2	1
0	53	0.2	1
0	54	0.2	2
0	55	0.2	1
0	68	0.25	1
0	69	0.25	2
0	70	0.25	1
0	77	0.3	1
0	78	0.3	2
0	79	0.3	1
0	80	0.3	1
0	81	0.3	2
0	82	0.3	1
0	95	0.35	1
0	96	0.35	2
0	97	0.35	1
0	104	0.4	1
0	105	0.4	2
0	106	0.4	1
0	107	0.4	1
0	108	0.4	2
0	109	0.4	1
0	122	0.45	1
0	123	0.45	2
0	124	0.45	1
0	131	0.5	1
0	132	0.5	2
0	133	0.5	1
0	134	0.5	1
0	135	0.5	2
0	136	0.5	1
0	149	0.55	1
0	150	0.55	2
0	151	0.55	1
0	158	0.6	1
0	159	0.6	2
0	160	0.6	1
0	161	0.6	1
0	162	0.6	2
0	163	0.6	1
0	176	0.65	1
0	177	0.65	2
0	178	0.65	1
0	185	0.7	1
0	186	0.7	2
0	187	0.7	1
0	188	0.7	1
0	189	0.7	2
0	190	0.7	1
0	203	0.75	1
0	204	0.75	2
0	205	0.75	1
0	212	0.8	1
0	213	0.8	2
0	214	0.8	1
0	215	0.8	1
0	216	0.8	2
0	217	0.8	1
0	230	0.85	1
0	231	0.85	2
0	232	0.85	1
0	239	0.9	1
0	240	0.9	2
0	241	0.9	1
0	242	0.9	1
0	243	0.9	2
0	244	0.9	1
0	257	0.95	1
0	258	0.95	2
0	259	0.95	1
0	266	1	1
0	267	1	2
0	268	1	1
0	269	1	1
0	270	1	2
0	271	1	1
0	284	1.05	1
0	285	1.05	2
0	286	1.05	1
0	295	1.1	1
0	296	1.1	2
0	297	1.1	1
0	298	1.1	1
0	299	1.1	2
0	300	1.1	1
0	381	1.15	1
0	382	1.15	2
0	383	1.15	1
0	400	1.2	1
0	401	1.2	2
0	402	1.2	1
0	403	1.2	1
0	404	1.2	2
0	405	1.2	1
0	418	1.25	1
0	419	1.25	2
0	420	1.25	1
0	427	1.3	1
0	428	1.3	2
0	429	1.3	1
0	430	1.3	1
0	431	1.3	2
0	432	1.3	1
0	445	1.35	1
0	446	1.35	2
0	447	1.35	1
0	454	1.4	1
0	455	1.4	2
0	456	1.4	1
0	457	1.4	1
0	458	1.4	2
0	459	1.4	1
0	472	1.45	1
0	473	1.45	2
0	474	1.45	1
0	481	1.5	1
0	482	1.5	2
0	483	1.5	1
0	484	1.5	1
0	485	1.5	2
0	486	1.5	1
0	499	1.55	1
0	500	1.55	2
0	501	1.55	1
0	508	1.6	1
0	509	1.6	2
0	510	1.6	1
0	511	1.6	1
0	512	1.6	2
0	513	1.6	1
0	526	1.65	1
0	527	1.65	2
0	528	1.65	1
0	601	1.7	1
0	602	1.7	2
0	603	1.7	1
0	604	1.7	1
0	605	1.7	2
0	606	1.7	1
0	629	1.75	1
0	630	1.75	2
0	631	1.75	1
0	638	1.8	1
0	639	1.8	2
0	640	1.8	1
0	641	1.8	1
0	642	1.8	2
0	643	1.8	1
0	656	1.85	1
0	657	1.85	2
0	658	1.85	1
0	665	1.9	1
0	666	1.9	2
0	667	1.9	1
0	668	1.9	1
0	669	1.9	2
0	670	1.9	1
0	683	1.95	1
0	684	1.95	2
0	685	1.95	1
0	692	2	1
0	693	2	2
0	694	2	1
0	695	2	1
0	696	2	2
0	697	2	1
0	710	2.05	1
0	711	2.05	2
0	712	2.05	1
0	721	2.1	1
0	722	2.1	2
0	723	2.1	1
0	724	2.1	1
0	725	2.1	2
0	726	2.1	1
0	741	2.15	1
0	742	2.15	2
0	743	2.15	1
0	750	2.2	1
0	751	2.2	2
0	752	2.2	1
0	753	2.2	1
0	754	2.2	2
0	755	2.2	1
0	844	2.25	1
0	845	2.25	2
0	846	2.25	1
0	877	2.3	1
0	878	2.3	2
0	879	2.3	1
0	880	2.3	1
0	881	2.3	2
0	882	2.3	1
0	895	2.35	1
0	896	2.35	2
0	897	2.35	1
0	904	2.4	1
0	905	2.4	2
0	906	2.4	1
0	907	2.4	1
0	908	2.4	2
0	909	2.4	1
0	922	2.45	1
0	923	2.45	2
0	924	2.45	1
0	931	2.5	1
0	932	2.5	2
0	933	2.5	1
0	934	2.5	1
0	935	2.5	2
0	936	2.5	1
0	949	2.55	1
0	950	2.55	2
0	951	2.55	1
0	958	2.6	1
0	959	2.6	2
0	960	2.6	1
0	961	2.6	1
0	962	2.6	2
0	963	2.6	1
0	976	2.65	1
0	977	2.65	2
0	978	2.65	1
0	985	2.7	1
0	986	2.7	2
0	987	2.7	1
0	988	2.7	1
0	989	2.7	2
0	990	2.7	1
0	1003	2.75	1
0	1004	2.75	2
0	1005	2.75	1
0	1061	2.8	1
0	1062	2.8	2
0	1063	2.8	1
0	1064	2.8	1
0	1065	2.8	2
0	1066	2.8	1
0	1079	2.85	1
0	1080	2.85	2
0	1081	2.85	1
0	1088	2.9	1
0	1089	2.9	2
0	1090	2.9	1
0	1091	2.9	1
0	1092	2.9	2
0	1093	2.9	1
0	1106	2.95	1
0	1107	2.95	2
0	1108	2.95	1
0	1115	3	1
0	1116	3	2
0	1117	3	1
0	1118	3	1
0	1119	3	2
0	1120	3	1
0	1133	3.05	1
0	1134	3.05	2
0	1135	3.05	1
0	1144	3.1	1
0	1145	3.1	2
0	1146	3.1	1
0	1147	3.1	1
0	1148	3.1	2
0	1149	3.1	1
0	1164	3.15	1
0	1165	3.15	2
0	1166	3.15	1
0	1173	3.2	1
0	1174	3.2	2
0	1175	3.2	1
0	1176	3.2	1
0	1177	3.2	2
0	1178	3.2	1
0	1191	3.25	1
0	1192	3.25	2
0	1193	3.25	1
0	1200	3.3	1
0	1201	3.3	2
0	1202	3.3	1
0	1203	3.3	1
0	1204	3.3	2
0	1205	3.3	1
0	1289	3.35	1
0	1290	3.35	2
0	1291	3.35	1
0	1312	3.4	1
0	1313	3.4	2
0	1314	3.4	1
0	1315	3.4	1
0	1316	3.4	2
0	1317	3.4	1
0	1330	3.45	1
0	1331	3.45	2
0	1332	3.45	1
0	1339	3.5	1
0	1340	3.5	2
0	1341	3.5	1
0	1342	3.5	1
0	1343	3.5	2
0	1344	3.5	1
0	1357	3.55	1
0	1358	3.55	2
0	1359	3.55	1
0	1366	3.6	1
0	1367	3.6	2
0	1368	3.6	1
0	1369	3.6	1
0	1370	3.6	2
0	1371	3.6	1
0	1384	3.65	1
0	1385	3.65	2
0	1386	3.65	1
0	1393	3.7	1
0	1394	3.7	2
0	1395	3.7	1
0	1396	3.7	1
0	1397	3.7	2
0	1398	3.7	1
0	1411	3.75	1
0	1412	3.75	2
0	1413	3.75	1
0	1420	3.8	1
0	1421	3.8	2
0	1422	3.8	1
0	1423	3.8	1
0	1424	3.8	2
0	1425	3.8	1
0	1438	3.85	1
0	1439	3.85	2
0	1440	3.85	1
0	1510	3.9	1
0	1511	3.9	2
0	1512	3.9	1
0	1513	3.9	1
0	1514	3.9	2
0	1515	3.9	1
0	1538	3.95	1
0	1539	3.95	2
0	1540	3.95	1
0	1547	4	1
0	1548	4	2
0	1549	4	1
0	1550	4	1
0	1551	4	2
0	1552	4	1
0	1565	4.05	1
0	1566	4.05	2
0	1567	4.05	1
0	1576	4.1	1
0	1577	4.1	2
0	1578	4.1	1
0	1579	4.1	1
0	1580	4.1	2
0	1581	4.1	1
0	1596	4.15	1
0	1597	4.15	2
0	1598	4.15	1
0	1605	4.2	1
0	1606	4.2	2
0	1607	4.2	1
0	1608	4.2	1
0	1609	4.2	2
0	1610	4.2	1
0	1623	4.25	1
0	1624	4.25	2
0	1625	4.25	1
0	1632	4.3	1
0	1633	4.3	2
0	1634	4.3	1
0	1635	4.3	1
0	1636	4.3	2
0	1637	4.3	1
0	1650	4.35	1
0	1651	4.35	2
0	1652	4.35	1
0	1659	4.4	1
0	1660	4.4	2
0	1661	4.4	1
0	1662	4.4	1
0	1663	4.4	2
0	1664	4.4	1
0	1751	4.45	1
0	1752	4.45	2
0	1753	4.45	1
0	1774	4.5	1
0	1775	4.5	2
0	1776	4.5	1
0	1777	4.5	1
0	1778	4.5	2
0	1779	4.5	1
0	1792	4.55	1
0	1793	4.55	2
0	1794	4.55	1
0	1801	4.6	1
0	1802	4.6	2
0	1803	4.6	1
0	1804	4.6	1
0	1805	4.6	2
0	1806	4.6	1
0	1819	4.65	1
0	1820	4.65	2
0	1821	4.65	1
0	1828	4.7	1
0	1829	4.7	2
0	1830	4.7	1
0	1831	4.7	1
0	1832	4.7	2
0	1833	4.7	1
0	1846	4.75	1
0	1847	4.75	2
0	1848	4.75	1
0	1855	4.8	1
0	1856	4.8	2
0	1857	4.8	1
0	1858	4.8	1
0	1859	4.8	2
0	1860	4.8	1
0	1873	4.85	1
0	1874	4.85	2
0	1875	4.85	1
0	1882	4.9	1
0	1883	4.9	2
0	1884	4.9	1
0	1885	4.9	1
0	1886	4.9	2
0	1887	4.9	1
0	1900	4.95	1
0	1901	4.95	2
0	1902	4.95	1
0	1963	5	1
0	1964	5	2
0	1965	5	1
0	1966	5	1
0	1967	5	2
0	1968	5	1
0	1981	5.05	1
0	1982	5.05	2
0	1983	5.05	1
0	1992	5.1	1
0	1993	5.1	2
0	1994	5.1	1
0	1995	5.1	1
0	1996	5.1	2
0	1997	5.1	1
0	2012	5.15	1
0	2013	5.15	2
0	2014	5.15	1
0	2021	5.2	1
0	2022	5.2	2
0	2023	5.2	1
0	2024	5.2	1
0	2025	5.2	2
0	2026	5.2	1
0	2039	5.25	1
0	2040	5.25	2
0	2041	5.25	1
0	2048	5.3	1
0	2049	5.3	2
0	2050	5.3	1
0	2051	5.3	1
0	2052	5.3	2
0	2053	5.3	1
0	2066	5.35	1
0	2067	5.35	2
0	2068	5.35	1
0	2075	5.4	1
0	2076	5.4	2
0	2077	5.4	1
0	2078	5.4	1
0	2079	5.4	2
0	2080	5.4	1
0	2093	5.45	1
0	2094	5.45	2
0	2095	5.45	1
0	2102	5.5	1
0	2103	5.5	2
0	2104	5.5	1
0	2105	5.5	1
0	2106	5.5	2
0	2107	5.5	1
0	2149	5.55	1
0	2150	5.55	2
0	2151	5.55	1
0	2158	5.6	1
0	2159	5.6	2
0	2160	5.6	1
0	2161	5.6	1
0	2162	5.6	2
0	2163	5.6	1
0	2176	5.65	1
0	2177	5.65	2
0	2178	5.65	1
0	2210	5.7	1
0	2211	5.7	2
0	2212	5.7	1
0	2213	5.7	1
0	2214	5.7	2
0	2215	5.7	1
0	2228	5.75	1
0	2229	5.75	2
0	2230	5.75	1
0	2237	5.8	1
0	2238	5.8	2
0	2239	5.8	1
0	2240	5.8	1
0	2241	5.8	2
0	2242	5.8	1
0	2255	5.85	1
0	2256	5.85	2
0	2257	5.85	1
0	2264	5.9	1
0	2265	5.9	2
0	2266	5.9	1
0	2267	5.9	1
0	2268	5.9	2
0	2269	5.9	1
0	2282	5.95	1
0	2283	5.95	2
0	2284	5.95	1
0	2291	6	1
0	2292	6	2
0	2293	6	1
0	2294	6	1
0	2295	6	2
0	2296	6	1
0	2309	6.05	1
0	2310	6.05	2
0	2311	6.05	1
0	2334	6.1	1
0	2335	6.1	2
0	2336	6.1	1
0	2337	6.1	1
0	2338	6.1	2
0	2339	6.1	1
0	2352	6.15	1
0	2353	6.15	2
0	2354	6.15	1
0	2361	6.2	1
0	2362	6.2	2
0	2363	6.2	1
0	2364	6.2	1
0	2365	6.2	2
0	2366	6.2	1
0	2392	6.25	1
0	2393	6.25	2
0	2394	6.25	1
0	2401	6.3	1
0	2402	6.3	2
0	2403	6.3	1
0	2404	6.3	1
0	2405	6.3	2
0	2406	6.3	1
0	2419	6.35	1
0	2420	6.35	2
0	2421	6.35	1
0	2428	6.4	1
0	2429	6.4	2
0	2430	6.4	1
0	2431	6.4	1
0	2432	6.4	2
0	2433	6.4	1
0	2446	6.45	1
0	2447	6.45	2
0	2448	6.45	1
0	2455	6.5	1
0	2456	6.5	2
0	2457	6.5	1
0	2458	6.5	1
0	2459	6.5	2
0	2460	6.5	1
0	2473	6.55	1
0	2474	6.55	2
0	2475	6.55	1
0	2482	6.6	1
0	2483	6.6	2
0	2484	6.6	1
0	2485	6.6	1
0	2486	6.6	2
0	2487	6.6	1
0	2537	6.65	1
0	2538	6.65	2
0	2539	6.65	1
0	2546	6.7	1
0	2547	6.7	2
0	2548	6.7	1
0	2549	6.7	1
0	2550	6.7	2
0	2551	6.7	1
0	2564	6.75	1
0	2565	6.75	2
0	2566	6.75	1
0	2586	6.8	1
0	2587	6.8	2
0	2588	6.8	1
0	2589	6.8	1
0	2590	6.8	2
0	2591	6.8	1
0	2604	6.85	1
0	2605	6.85	2
0	2606	6.85	1
0	2613	6.9	1
0	2614	6.9	2
0	2615	6.9	1
0	2616	6.9	1
0	2617	6.9	2
0	2618	6.9	1
0	2631	6.95	1
0	2632	6.95	2
0	2633	6.95	1
0	2640	7	1
0	2641	7	2
0	2642	7	1
0	2643	7	1
0	2644	7	2
0	2645	7	1
0	2658	7.05	1
0	2659	7.05	2
0	2660	7.05	1
0	2667	7.1	1
0	2668	7.1	2
0	2669	7.1	1
0	2670	7.1	1
0	2671	7.1	2
0	2672	7.1	1
0	2685	7.15	1
0	2686	7.15	2
0	2687	7.15	1
0	2707	7.2	1
0	2708	7.2	2
0	2709	7.2	1
0	2710	7.2	1
0	2711	7.2	2
0	2712	7.2	1
0	2725	7.25	1
0	2726	7.25	2
0	2727	7.25	1
0	2747	7.3	1
0	2748	7.3	2
0	2749	7.3	1
0	2750	7.3	1
0	2751	7.3	2
0	2752	7.3	1
0	2775	7.35	1
0	2776	7.35	2
0	2777	7.35	1
0	2784	7.4	1
0	2785	7.4	2
0	2786	7.4	1
0	2787	7.4	1
0	2788	7.4	2
0	2789	7.4	1
0	2815	7.45	1
0	2816	7.45	2
0	2817	7.45	1
0	2824	7.5	1
0	2825	7.5	2
0	2826	7.5	1
0	2827	7.5	1
0	2828	7.5	2
0	2829	7.5	1
0	2842	7.55	1
0	2843	7.55	2
0	2844	7.55	1
0	2851	7.6	1
0	2852	7.6	2
0	2853	7.6	1
0	2854	7.6	1
0	2855	7.6	2
0	2856	7.6	1
0	2869	7.65	1
0	2870	7.65	2
0	2871	7.65	1
0	2878	7.7	1
0	2879	7.7	2
0	2880	7.7	1
0	2881	7.7	1
0	2882	7.7	2
0	2883	7.7	1
0	2909	7.75	1
0	2910	7.75	2
0	2911	7.75	1
0	2918	7.8	1
0	2919	7.8	2
0	2920	7.8	1
0	2921	7.8	1
0	2922	7.8	2
0	2923	7.8	1
0	2949	7.85	1
0	2950	7.85	2
0	2951	7.85	1
0	2968	7.9	1
0	2969	7.9	2
0	2970	7.9	1
0	2971	7.9	1
0	2972	7.9	2
0	2973	7.9	1
0	2986	7.95	1
0	2987	7.95	2
0	2988	7.95	1
0	3008	8	1
0	3009	8	2
0	3010	8	1
0	3011	8	1
0	3012	8	2
0	3013	8	1
0	3026	8.05	1
0	3027	8.05	2
0	3028	8.05	1
0	3035	8.1	1
0	3036	8.1	2
0	3037	8.1	1
0	3038	8.1	1
0	3039	8.1	2
0	3040	8.1	1
0	3053	8.15	1
0	3054	8.15	2
0	3055	8.15	1
0	3062	8.2	1
0	3063	8.2	2
0	3064	8.2	1
0	3065	8.2	1
0	3066	8.2	2
0	3067	8.2	1
0	3080	8.25	1
0	3081	8.25	2
0	3082	8.25	1
0	3102	8.3	1
0	3103	8.3	2
0	3104	8.3	1
0	3105	8.3	1
0	3106	8.3	2
0	3107	8.3	1
0	3120	8.35	1
0	3121	8.35	2
0	3122	8.35	1
0	3142	8.4	1
0	3143	8.4	2
0	3144	8.4	1
0	3145	8.4	1
0	3146	8.4	2
0	3147	8.4	1
0	3173	8.45	1
0	3174	8.45	2
0	3175	8.45	1
0	3182	8.5	1
0	3183	8.5	2
0	3184	8.5	1
0	3185	8.5	1
0	3186	8.5	2
0	3187	8.5	1
0	3213	8.55	1
0	3214	8.55	2
0	3215	8.55	1
0	3222	8.6	1
0	3223	8.6	2
0	3224	8.6	1
0	3225	8.6	1
0	3226	8.6	2
0	3227	8.6	1
0	3240	8.65	1
0	3241	8.65	2
0	3242	8.65	1
0	3249	8.7	1
0	3250	8.7	2
0	3251	8.7	1
0	3252	8.7	1
0	3253	8.7	2
0	3254	8.7	1
0	3267	8.75	1
0	3268	8.75	2
0	3269	8.75	1
0	3276	8.8	1
0	3277	8.8	2
0	3278	8.8	1
0	3279	8.8	1
0	3280	8.8	2
0	3281	8.8	1
0	3307	8.85	1
0	3308	8.85	2
0	3309	8.85	1
0	3316	8.9	1
0	3317	8.9	2
0	3318	8.9	1
0	3319	8.9	1
0	3320	8.9	2
0	3321	8.9	1
0	3347	8.95	1
0	3348	8.95	2
0	3349	8.95	1
0	3369	9	1
0	3370	9	2
0	3371	9	1
0	3372	9	1
0	3373	9	2
0	3374	9	1
0	3387	9.05	1
0	3388	9.05	2
0	3389	9.05	1
0	3409	9.1	1
0	3410	9.1	2
0	3411	9.1	1
0	3412	9.1	1
0	3413	9.1	2
0	3414	9.1	1
0	3427	9.15	1
0	3428	9.15	2
0	3429	9.15	1
0	3436	9.2	1
0	3437	9.2	2
0	3438	9.2	1
0	3439	9.2	1
0	3440	9.2	2
0	3441	9.2	1
0	3454	9.25	1
0	3455	9.25	2
0	3456	9.25	1
0	3463	9.3	1
0	3464	9.3	2
0	3465	9.3	1
0	3466	9.3	1
0	3467	9.3	2
0	3468	9.3	1
0	3481	9.35	1
0	3482	9.35	2
0	3483	9.35	1
0	3500	9.4	1
0	3501	9.4	2
0	3502	9.4	1
0	3503	9.4	1
0	3504	9.4	2
0	3505	9.4	1
0	3518	9.45	1
0	3519	9.45	2
0	3520	9.45	1
0	3540	9.5	1
0	3541	9.5	2
0	3542	9.5	1
0	3543	9.5	1
0	3544	9.5	2
0	3545	9.5	1
0	3571	9.55	1
0	3572	9.55	2
0	3573	9.55	1
0	3580	9.6	1
0	3581	9.6	2
0	3582	9.6	1
0	3583	9.6	1
0	3584	9.6	2
0	3585	9.6	1
0	3611	9.65	1
0	3612	9.65	2
0	3613	9.65	1
0	3620	9.7	1
0	3621	9.7	2
0	3622	9.7	1
0	3623	9.7	1
0	3624	9.7	2
0	3625	9.7	1
0	3638	9.75	1
0	3639	9.75	2
0	3640	9.75	1
0	3647	9.8	1
0	3648	9.8	2
0	3649	9.8	1
0	3650	9.8	1
0	3651	9.8	2
0	3652	9.8	1
0	3665	9.85	1
0	3666	9.85	2
0	3667	9.85	1
0	3674	9.9	1
0	3675	9.9	2
0	3676	9.9	1
0	3677	9.9	1
0	3678	9.9	2
0	3679	9.9	1
0	3705	9.95	1
0	3706	9.95	2
0	3707	9.95	1
0	3714	10	1
0	3715	10	2
0	3716	10	1
0	3717	10	1
0	3718	10	2
0	3719	10	1
0	3745	10.05	1
0	3746	10.05	2
0	3747	10.05	1
0	3767	10.1	1
0	3768	10.1	2
0	3769	10.1	1
0	3770	10.1	1
0	3771	10.1	2
0	3772	10.1	1
0	3785	10.15	1
0	3786	10.15	2
0	3787	10.15	1
0	3807	10.2	1
0	3808	10.2	2
0	3809	10.2	1
0	3810	10.2	1
0	3811	10.2	2
0	3812	10.2	1
0	3825	10.25	1
0	3826	10.25	2
0	3827	10.25	1
0	3834	10.3	1
0	3835	10.3	2
0	3836	10.3	1
0	3837	10.3	1
0	3838	10.3	2
0	3839	10.3	1
0	3852	10.35	1
0	3853	10.35	2
0	3854	10.35	1
0	3861	10.4	1
0	3862	10.4	2
0	3863	10.4	1
0	3864	10.4	1
0	3865	10.4	2
0	3866	10.4	1
0	3879	10.45	1
0	3880	10.45	2
0	3881	10.45	1
0	3901	10.5	1
0	3902	10.5	2
0	3903	10.5	1
0	3904	10.5	1
0	3905	10.5	2
0	3906	10.5	1
0	3919	10.55	1
0	3920	10.55	2
0	3921	10.55	1
0	3941	10.6	1
0	3942	10.6	2
0	3943	10.6	1
0	3944	10.6	1
0	3945	10.6	2
0	3946	10.6	1
0	3972	10.65	1
0	3973	10.65	2
0	3974	10.65	1
0	3981	10.7	1
0	3982	10.7	2
0	3983	10.7	1
0	3984	10.7	1
0	3985	10.7	2
0	3986	10.7	1
0	4012	10.75	1
0	4013	10.75	2
0	4014	10.75	1
0	4021	10.8	1
0	4022	10.8	2
0	4023	10.8	1
0	4024	10.8	1
0	4025	10.8	2
0	4026	10.8	1
0	4039	10.85	1
0	4040	10.85	2
0	4041	10.85	1
0	4048	10.9	1
0	4049	10.9	2
0	4050	10.9	1
0	4051	10.9	1
0	4052	10.9	2
0	4053	10.9	1
0	4066	10.95	1
0	4067	10.95	2
0	4068	10.95	1
0	4075	11	1
0	4076	11	2
0	4077	11	1
0	4078	11	1
0	4079	11	2
0	4080	11	1
0	4106	11.05	1
0	4107	11.05	2
0	4108	11.05	1
0	4115	11.1	1
0	4116	11.1	2
0	4117	11.1	1
0	4118	11.1	1
0	4119	11.1	2
0	4120	11.1	1
0	4146	11.15	1
0	4147	11.15	2
0	4148	11.15	1
0	4168	11.2	1
0	4169	11.2	2
0	4170	11.2	1
0	4171	11.2	1
0	4172	11.2	2
0	4173	11.2	1
0	4186	11.25	1
0	4187	11.25	2
0	4188	11.25	1
0	4208	11.3	1
0	4209	11.3	2
0	4210	11.3	1
0	4211	11.3	1
0	4212	11.3	2
0	4213	11.3	1
0	4226	11.35	1
0	4227	11.35	2
0	4228	11.35	1
0	4235	11.4	1
0	4236	11.4	2
0	4237	11.4	1
0	4238	11.4	1
0	4239	11.4	2
0	4240	11.4	1
0	4253	11.45	1
0	4254	11.45	2
0	4255	11.45	1
0	4262	11.5	1
0	4263	11.5	2
0	4264	11.5	1
0	4265	11.5	1
0	4266	11.5	2
0	4267	11.5	1
0	4280	11.55	1
0	4281	11.55	2
0	4282	11.55	1
0	4302	11.6	1
0	4303	11.6	2
0	4304	11.6	1
0	4305	11.6	1
0	4306	11.6	2
0	4307	11.6	1
0	4320	11.65	1
0	4321	11.65	2
0	4322	11.65	1
0	4342	11.7	1
0	4343	11.7	2
0	4344	11.7	1
0	4345	11.7	1
0	4346	11.7	2
0	4347	11.7	1
0	4373	11.75	1
0	4374	11.75	2
0	4375	11.75	1
0	4382	11.8	1
0	4383	11.8	2
0	4384	11.8	1
0	4385	11.8	1
0	4386	11.8	2
0	4387	11.8	1
0	4403	11.85	1
0	4404	11.85	2
0	4405	11.85	1
0	4412	11.9	1
0	4413	11.9	2
0	4414	11.9	1
0	4415	11.9	1
0	4416	11.9	2
0	4417	11.9	1
0	4430	11.95	1
0	4431	11.95	2
0	4432	11.95	1
0	4439	12	1
0	4440	12	2
0	4441	12	1
0	4442	12	1
0	4443	12	2
0	4444	12	1
0	4457	12.05	1
0	4458	12.05	2
0	4459	12.05	1
0	4466	12.1	1
0	4467	12.1	2
0	4468	12.1	1
0	4469	12.1	1
0	4470	12.1	2
0	4471	12.1	1
0	4497	12.15	1
0	4498	12.15	2
0	4499	12.15	1
0	4506	12.2	1
0	4507	12.2	2
0	4508	12.2	1
0	4509	12.2	1
0	4510	12.2	2
0	4511	12.2	1
0	4524	12.25	1
0	4525	12.25	2
0	4526	12.25	1
0	4546	12.3	1
0	4547	12.3	2
0	4548	12.3	1
0	4549	12.3	1
0	4550	12.3	2
0	4551	12.3	1
0	4564	12.35	1
0	4565	12.35	2
0	4566	12.35	1
0	4573	12.4	1
0	4574	12.4	2
0	4575	12.4	1
0	4576	12.4	1
0	4577	12.4	2
0	4578	12.4	1
0	4591	12.45	1
0	4592	12.45	2
0	4593	12.45	1
0	4600	12.5	1
0	4601	12.5	2
0	4602	12.5	1
0	4603	12.5	1
0	4604	12.5	2
0	4605	12.5	1
0	4618	12.55	1
0	4619	12.55	2
0	4620	12.55	1
0	4627	12.6	1
0	4628	12.6	2
0	4629	12.6	1
0	4630	12.6	1
0	4631	12.6	2
0	4632	12.6	1
0	4645	12.65	1
0	4646	12.65	2
0	4647	12.65	1
0	4667	12.7	1
0	4668	12.7	2
0	4669	12.7	1
0	4670	12.7	1
0	4671	12.7	2
0	4672	12.7	1
0	4685	12.75	1
0	4686	12.75	2
0	4687	12.75	1
0	4694	12.8	1
0	4695	12.8	2
0	4696	12.8	1
0	4697	12.8	1
0	4698	12.8	2
0	4699	12.8	1
0	4725	12.85	1
0	4726	12.85	2
0	4727	12.85	1
0	4734	12.9	1
0	4735	12.9	2
0	4736	12.9	1
0	4737	12.9	1
0	4738	12.9	2
0	4739	12.9	1
0	4752	12.95	1
0	4753	12.95	2
0	4754	12.95	1
0	4761	13	1
0	4762	13	2
0	4763	13	1
0	4764	13	1
0	4765	13	2
0	4766	13	1
0	4779	13.05	1
0	4780	13.05	2
0	4781	13.05	1
0	4788	13.1	1
0	4789	13.1	2
0	4790	13.1	1
0	4791	13.1	1
0	4792	13.1	2
0	4793	13.1	1
0	4806	13.15	1
0	4807	13.15	2
0	4808	13.15	1
0	4815	13.2	1
0	4816	13.2	2
0	4817	13.2	1
0	4818	13.2	1
0	4819	13.2	2
0	4820	13.2	1
0	4846	13.25	1
0	4847	13.25	2
0	4848	13.25	1
0	4868	13.3	1
0	4869	13.3	2
0	4870	13.3	1
0	4871	13.3	1
0	4872	13.3	2
0	4873	13.3	1
0	4886	13.35	1
0	4887	13.35	2
0	4888	13.35	1
0	4908	13.4	1
0	4909	13.4	2
0	4910	13.4	1
0	4911	13.4	1
0	4912	13.4	2
0	4913	13.4	1
0	4939	13.45	1
0	4940	13.45	2
0	4941	13.45	1
0	4948	13.5	1
0	4949	13.5	2
0	4950	13.5	1
0	4951	13.5	1
0	4952	13.5	2
0	4953	13.5	1
0	4966	13.55	1
0	4967	13.55	2
0	4968	13.55	1
0	4975	13.6	1
0	4976	13.6	2
0	4977	13.6	1
0	4978	13.6	1
0	4979	13.6	2
0	4980	13.6	1
0	4993	13.65	1
0	4994	13.65	2
0	4995	13.65	1
0	5002	13.7	1
0	5003	13.7	2
0	5004	13.7	1
0	5005	13.7	1
0	5006	13.7	2
0	5007	13.7	1
0	5020	13.75	1
0	5021	13.75	2
0	5022	13.75	1
0	5042	13.8	1
0	5043	13.8	2
0	5044	13.8	1
0	5045	13.8	1
0	5046	13.8	2
0	5047	13.8	1
0	5073	13.85	1
0	5074	13.85	2
0	5075	13.85	1
0	5082	13.9	1
0	5083	13.9	2
0	5084	13.9	1
0	5085	13.9	1
0	5086	13.9	2
0	5087	13.9	1
0	5113	13.95	1
0	5114	13.95	2
0	5115	13.95	1
0	5135	14	1
0	5136	14	2
0	5137	14	1
0	5138	14	1
0	5139	14	2
0	5140	14	1
0	5153	14.05	1
0	5154	14.05	2
0	5155	14.05	1
0	5162	14.1	1
0	5163	14.1	2
0	5164	14.1	1
0	5165	14.1	1
0	5166	14.1	2
0	5167	14.1	1
0	5180	14.15	1
0	5181	14.15	2
0	5182	14.15	1
0	5189	14.2	1
0	5190	14.2	2
0	5191	14.2	1
0	5192	14.2	1
0	5193	14.2	2
0	5194	14.2	1
0	5207	14.25	1
0	5208	14.25	2
0	5209	14.25	1
0	5216	14.3	1
0	5217	14.3	2
0	5218	14.3	1
0	5219	14.3	1
0	5220	14.3	2
0	5221	14.3	1
0	5244	14.35	1
0	5245	14.35	2
0	5246	14.35	1
0	5266	14.4	1
0	5267	14.4	2
0	5268	14.4	1
0	5269	14.4	1
0	5270	14.4	2
0	5271	14.4	1
0	5284	14.45	1
0	5285	14.45	2
0	5286	14.45	1
0	5306	14.5	1
0	5307	14.5	2
0	5308	14.5	1
0	5309	14.5	1
0	5310	14.5	2
0	5311	14.5	1
0	5334	14.55	1
0	5335	14.55	2
0	5336	14.55	1
0	5343	14.6	1
0	5344	14.6	2
0	5345	14.6	1
0	5346	14.6	1
0	5347	14.6	2
0	5348	14.6	1
0	5361	14.65	1
0	5362	14.65	2
0	5363	14.65	1
0	5370	14.7	1
0	5371	14.7	2
0	5372	14.7	1
0	5373	14.7	1
0	5374	14.7	2
0	5375	14.7	1
0	5388	14.75	1
0	5389	14.75	2
0	5390	14.75	1
0	5397	14.8	1
0	5398	14.8	2
0	5399	14.8	1
0	5400	14.8	1
0	5401	14.8	2
0	5402	14.8	1
0	5415	14.85	1
0	5416	14.85	2
0	5417	14.85	1
0	5437	14.9	1
0	5438	14.9	2
0	5439	14.9	1
0	5440	14.9	1
0	5441	14.9	2
0	5442	14.9	1
0	5468	14.95	1
0	5469	14.95	2
0	5470	14.95	1
0	5477	15	1
0	5478	15	2
0	5479	15	1
0	5480	15	1
0	5481	15	2
0	5482	15	1
0	5508	15.05	1
0	5509	15.05	2
0	5510	15.05	1
0	5530	15.1	1
0	5531	15.1	2
0	5532	15.1	1
0	5533	15.1	1
0	5534	15.1	2
0	5535	15.1	1
0	5548	15.15	1
0	5549	15.15	2
0	5550	15.15	1
0	5557	15.2	1
0	5558	15.2	2
0	5559	15.2	1
0	5560	15.2	1
0	5561	15.2	2
0	5562	15.2	1
0	5575	15.25	1
0	5576	15.25	2
0	5577	15.25	1
0	5584	15.3	1
0	5585	15.3	2
0	5586	15.3	1
0	5587	15.3	1
0	5588	15.3	2
0	5589	15.3	1
0	5602	15.35	1
0	5603	15.35	2
0	5604	15.35	1
0	5611	15.4	1
0	5612	15.4	2
0	5613	15.4	1
0	5614	15.4	1
0	5615	15.4	2
0	5616	15.4	1
0	5642	15.45	1
0	5643	15.45	2
0	5644	15.45	1
0	5664	15.5	1
0	5665	15.5	2
0	5666	15.5	1
0	5667	15.5	1
0	5668	15.5	2
0	5669	15.5	1
0	5682	15.55	1
0	5683	15.55	2
0	5684	15.55	1
0	5694	15.6	1
0	5695	15.6	2
0	5696	15.6	1
0	5697	15.6	1
0	5698	15.6	2
0	5699	15.6	1
0	5725	15.65	1
0	5726	15.65	2
0	5727	15.65	1
0	5734	15.7	1
0	5735	15.7	2
0	5736	15.7	1
0	5737	15.7	1
0	5738	15.7	2
0	5739	15.7	1
0	5752	15.75	1
0	5753	15.75	2
0	5754	15.75	1
0	5761	15.8	1
0	5762	15.8	2
0	5763	15.8	1
0	5764	15.8	1
0	5765	15.8	2
0	5766	15.8	1
0	5779	15.85	1
0	5780	15.85	2
0	5781	15.85	1
0	5788	15.9	1
0	5789	15.9	2
0	5790	15.9	1
0	5791	15.9	1
0	5792	15.9	2
0	5793	15.9	1
0	5806	15.95	1
0	5807	15.95	2
0	5808	15.95	1
0	5815	16	1
0	5816	16	2
0	5817	16	1
0	5818	16	1
0	5819	16	2
0	5820	16	1
0	5846	16.05	1
0	5847	16.05	2
0	5848	16.05	1
0	5855	16.1	1
0	5856	16.1	2
0	5857	16.1	1
0	5858	16.1	1
0	5859	16.1	2
0	5860	16.1	1
0	5873	16.15	1
0	5874	16.15	2
0	5875	16.15	1
0	5895	16.2	1
0	5896	16.2	2
0	5897	16.2	1
0	5898	16.2	1
0	5899	16.2	2
0	5900	16.2	1
0	5913	16.25	1
0	5914	16.25	2
0	5915	16.25	1
0	5922	16.3	1
0	5923	16.3	2
0	5924	16.3	1
0	5925	16.3	1
0	5926	16.3	2
0	5927	16.3	1
0	5940	16.35	1
0	5941	16.35	2
0	5942	16.35	1
0	5949	16.4	1
0	5950	16.4	2
0	5951	16.4	1
0	5952	16.4	1
0	5953	16.4	2
0	5954	16.4	1
0	5967	16.45	1
0	5968	16.45	2
0	5969	16.45	1
0	5976	16.5	1
0	5977	16.5	2
0	5978	16.5	1
0	5979	16.5	1
0	5980	16.5	2
0	5981	16.5	1
0	5994	16.55	1
0	5995	16.55	2
0	5996	16.55	1
0	6013	16.6	1
0	6014	16.6	2
0	6015	16.6	1
0	6016	16.6	1
0	6017	16.6	2
0	6018	16.6	1
0	6031	16.65	1
0	6032	16.65	2
0	6033	16.65	1
0	6040	16.7	1
0	6041	16.7	2
0	6042	16.7	1
0	6043	16.7	1
0	6044	16.7	2
0	6045	16.7	1
0	6071	16.75	1
0	6072	16.75	2
0	6073	16.75	1
0	6080	16.8	1
0	6081	16.8	2
0	6082	16.8	1
0	6083	16.8	1
0	6084	16.8	2
0	6085	16.8	1
0	6098	16.85	1
0	6099	16.85	2
0	6100	16.85	1
0	6107	16.9	1
0	6108	16.9	2
0	6109	16.9	1
0	6110	16.9	1
0	6111	16.9	2
0	6112	16.9	1
0	6125	16.95	1
0	6126	16.95	2
0	6127	16.95	1
0	6134	17	1
0	6135	17	2
0	6136	17	1
0	6137	17	1
0	6138	17	2
0	6139	17	1
0	6165	17.05	1
0	6166	17.05	2
0	6167	17.05	1
0	6174	17.1	1
0	6175	17.1	2
0	6176	17.1	1
0	6177	17.1	1
0	6178	17.1	2
0	6179	17.1	1
0	6205	17.15	1
0	6206	17.15	2
0	6207	17.15	1
0	6227	17.2	1
0	6228	17.2	2
0	6229	17.2	1
0	6230	17.2	1
0	6231	17.2	2
0	6232	17.2	1
0	6245	17.25	1
0	6246	17.25	2
0	6247	17.25	1
0	6267	17.3	1
0	6268	17.3	2
0	6269	17.3	1
0	6270	17.3	1
0	6271	17.3	2
0	6272	17.3	1
0	6285	17.35	1
0	6286	17.35	2
0	6287	17.35	1
0	6294	17.4	1
0	6295	17.4	2
0	6296	17.4	1
0	6297	17.4	1
0	6298	17.4	2
0	6299	17.4	1
0	6312	17.45	1
0	6313	17.45	2
0	6314	17.45	1
0	6321	17.5	1
0	6322	17.5	2
0	6323	17.5	1
0	6324	17.5	1
0	6325	17.5	2
0	6326	17.5	1
0	6339	17.55	1
0	6340	17.55	2
0	6341	17.55	1
0	6361	17.6	1
0	6362	17.6	2
0	6363	17.6	1
0	6364	17.6	1
0	6365	17.6	2
0	6366	17.6	1
0	6379	17.65	1
0	6380	17.65	2
0	6381	17.65	1
0	6401	17.7	1
0	6402	17.7	2
0	6403	17.7	1
0	6404	17.7	1
0	6405	17.7	2
0	6406	17.7	1
0	6432	17.75	1
0	6433	17.75	2
0	6434	17.75	1
0	6441	17.8	1
0	6442	17.8	2
0	6443	17.8	1
0	6444	17.8	1
0	6445	17.8	2
0	6446	17.8	1
0	6472	17.85	1
0	6473	17.85	2
0	6474	17.85	1
0	6481	17.9	1
0	6482	17.9	2
0	6483	17.9	1
0	6484	17.9	1
0	6485	17.9	2
0	6486	17.9	1
0	6499	17.95	1
0	6500	17.95	2
0	6501	17.95	1
0	6508	18	1
0	6509	18	2
0	6510	18	1
0	6511	18	1
0	6512	18	2
0	6513	18	1
0	6526	18.05	1
0	6527	18.05	2
0	6528	18.05	1
0	6535	18.1	1
0	6536	18.1	2
0	6537	18.1	1
0	6538	18.1	1
0	6539	18.1	2
0	6540	18.1	1
0	6566	18.15	1
0	6567	18.15	2
0	6568	18.15	1
0	6575	18.2	1
0	6576	18.2	2
0	6577	18.2	1
0	6578	18.2	1
0	6579	18.2	2
0	6580	18.2	1
0	6606	18.25	1
0	6607	18.25	2
0	6608	18.25	1
0	6628	18.3	1
0	6629	18.3	2
0	6630	18.3	1
0	6631	18.3	1
0	6632	18.3	2
0	6633	18.3	1
0	6646	18.35	1
0	6647	18.35	2
0	6648	18.35	1
0	6668	18.4	1
0	6669	18.4	2
0	6670	18.4	1
0	6671	18.4	1
0	6672	18.4	2
0	6673	18.4	1
0	6686	18.45	1
0	6687	18.45	2
0	6688	18.45	1
0	6695	18.5	1
0	6696	18.5	2
0	6697	18.5	1
0	6698	18.5	1
0	6699	18.5	2
0	6700	18.5	1
0	6713	18.55	1
0	6714	18.55	2
0	6715	18.55	1
0	6722	18.6	1
0	6723	18.6	2
0	6724	18.6	1
0	6725	18.6	1
0	6726	18.6	2
0	6727	18.6	1
0	6740	18.65	1
0	6741	18.65	2
0	6742	18.65	1
0	6762	18.7	1
0	6763	18.7	2
0	6764	18.7	1
0	6765	18.7	1
0	6766	18.7	2
0	6767	18.7	1
0	6780	18.75	1
0	6781	18.75	2
0	6782	18.75	1
0	6802	18.8	1
0	6803	18.8	2
0	6804	18.8	1
0	6805	18.8	1
0	6806	18.8	2
0	6807	18.8	1
0	6823	18.85	1
0	6824	18.85	2
0	6825	18.85	1
0	6832	18.9	1
0	6833	18.9	2
0	6834	18.9	1
0	6835	18.9	1
0	6836	18.9	2
0	6837	18.9	1
0	6863	18.95	1
0	6864	18.95	2
0	6865	18.95	1
0	6872	19	1
0	6873	19	2
0	6874	19	1
0	6875	19	1
0	6876	19	2
0	6877	19	1
0	6890	19.05	1
0	6891	19.05	2
0	6892	19.05	1
0	6899	19.1	1
0	6900	19.1	2
0	6901	19.1	1
0	6902	19.1	1
0	6903	19.1	2
0	6904	19.1	1
0	6917	19.15	1
0	6918	19.15	2
0	6919	19.15	1
0	6926	19.2	1
0	6927	19.2	2
0	6928	19.2	1
0	6929	19.2	1
0	6930	19.2	2
0	6931	19.2	1
0	6944	19.25	1
0	6945	19.25	2
0	6946	19.25	1
0	6953	19.3	1
0	6954	19.3	2
0	6955	19.3	1
0	6956	19.3	1
0	6957	19.3	2
0	6958	19.3	1
0	6984	19.35	1
0	6985	19.35	2
0	6986	19.35	1
0	6993	19.4	1
0	6994	19.4	2
0	6995	19.4	1
0	6996	19.4	1
0	6997	19.4	2
0	6998	19.4	1
0	7011	19.45	1
0	7012	19.45	2
0	7013	19.45	1
0	7033	19.5	1
0	7034	19.5	2
0	7035	19.5	1
0	7036	19.5	1
0	7037	19.5	2
0	7038	19.5	1
0	7051	19.55	1
0	7052	19.55	2
0	7053	19.55	1
0	7060	19.6	1
0	7061	19.6	2
0	7062	19.6	1
0	7063	19.6	1
0	7064	19.6	2
0	7065	19.6	1
0	7078	19.65	1
0	7079	19.65	2
0	7080	19.65	1
0	7087	19.7	1
0	7088	19.7	2
0	7089	19.7	1
0	7090	19.7	1
0	7091	19.7	2
0	7092	19.7	1
0	7105	19.75	1
0	7106	19.75	2
0	7107	19.75	1
0	7114	19.8	1
0	7115	19.8	2
0	7116	19.8	1
0	7117	19.8	1
0	7118	19.8	2
0	7119	19.8	1
0	7132	19.85	1
0	7133	19.85	2
0	7134	19.85	1
0	7154	19.9	1
0	7155	19.9	2
0	7156	19.9	1
0	7157	19.9	1
0	7158	19.9	2
0	7159	19.9	1
0	7172	19.95	1
0	7173	19.95	2
0	7174	19.95	1
0	7181	20	1
0	7182	20	2
0	7183	20	1
0	7184	20	1
0	7185	20	2
0	7186	20	1
1	19	0.1	-nan
1	21	0.1	-nan
1	293	1.1	-nan
1	294	1.1	-nan
1	719	2.1	-nan
1	720	2.1	-nan
1	1142	3.1	-nan
1	1143	3.1	-nan
1	1574	4.1	-nan
1	1575	4.1	-nan
1	1990	5.1	-nan
1	1991	5.1	-nan
2	374	1.142624192201	141
2	393	1.156464192201	282
2	594	1.688032534095	423
2	622	1.701872534095	564
2	831	2.238032534095	705
2	837	2.242624192201	846
2	856	2.256464192201	987
2	866	2.270304192201	1128
2	1279	3.338032534095	1269
2	1285	3.342624192201	1410
2	1301	3.356464192201	1551
2	1506	3.892624192201	1692
2	1531	3.906464192201	1833
2	1738	4.438032534095	1974
2	1744	4.442624192201	2115
2	1763	4.456464192201	2256
2	1956	4.992624192201	2397
2	2203	5.678453385287	2538
2	2520	6.628453385287	2679
2	2530	6.642293385287	2820
3	374	1.142624192201	141
3	393	1.156464192201	282
3	594	1.688032534095	423
3	622	1.701872534095	564
3	831	2.238032534095	705
3	837	2.242624192201	846
3	856	2.256464192201	987
3	866	2.270304192201	1128
3	1279	3.338032534095	1269
3	1285	3.342624192201	1410
3	1301	3.356464192201	1551
3	1506	3.892624192201	1692
3	1531	3.906464192201	1833
3	1738	4.438032534095	1974
3	1744	4.442624192201	2115
3	1763	4.456464192201	2256
3	1956	4.992624192201	2397
3	2203	5.678453385287	2538
3	2520	6.628453385287	2679
3	2530	6.642293385287	2820

